geometry optimzed in LAMMPS
_audit_creation_date              2020-12-01 
_audit_creation_method            'lammps2cif' 
_symmetry_space_group_name_H-M    'P1' 
_symmetry_Int_Tables_number       1 
_symmetry_cell_setting            triclinic 
loop_ 
_symmetry_equiv_pos_as_xyz 
  x,y,z 
_cell_length_a                    28.970768 
_cell_length_b                    43.0411631324936 
_cell_length_c                    54.63635652759574 
_cell_angle_alpha                 89.62194340198269 
_cell_angle_beta                  90.2583106193627 
_cell_angle_gamma                 90.25861712032057 
loop_ 
_atom_site_label 
_atom_site_type_symbol 
_atom_site_fract_x 
_atom_site_fract_y 
_atom_site_fract_z 
_atom_site_charge 
O1          O  0.37392963  0.95259394  0.34252216    -0.82200
C2          C  0.31855582  0.86312687  0.40732482     0.97200
O3          O  0.30244771  0.87668774  0.38861997    -0.71300
O4          O  0.29256750  0.92570136  0.36060492    -0.74900
Al5        Al  0.33452602  0.89032069  0.35984789     1.49000
C6          C  0.29134120  0.94894028  0.37481272     0.92400
O7          O  0.40501124  0.95313248  0.41055676    -0.81100
O8          O  0.46799510  0.90881716  0.39557536    -0.74700
Al9        Al  0.38802522  0.94841308  0.37669299     1.90100
O10         O  0.39042933  0.90725547  0.42557746    -0.73800
O11         O  0.43369090  0.85889980  0.37409838    -0.73600
O12         O  0.36105774  0.85661938  0.40739587    -0.79300
O13         O  0.36741823  0.85011005  0.35571377    -0.77500
O14         O  0.37838214  0.90775607  0.37795961    -1.13600
O15         O  0.36140404  0.90499339  0.32939060    -0.72800
C16         C  0.36917752  0.93366171  0.32504716     0.97900
C17         C  0.40074666  0.93509739  0.42871944     0.94300
Al18       Al  0.41080254  0.88470522  0.39874586     1.55600
O19         O  0.32707879  0.95756061  0.38605859    -0.77400
C20         C  0.40877322  0.84200116  0.36076756     0.98500
C21         C  0.47999353  0.93062122  0.38112192     0.93400
O22         O  0.45039746  0.94375447  0.36766493    -0.82700
O23         O  0.58986135  0.53870849  0.33971910    -0.82200
C24         C  0.66231263  0.61854469  0.41218020     0.97200
O25         O  0.67593769  0.61881154  0.38991687    -0.71300
O26         O  0.69944525  0.56486871  0.37066526    -0.74900
Al27       Al  0.65506602  0.59495023  0.36090222     1.49000
C28         C  0.69590286  0.53572478  0.37167265     0.92400
O29         O  0.59949356  0.52946262  0.40771953    -0.81100
O30         O  0.51739299  0.59225156  0.37736073    -0.74700
Al31       Al  0.59507834  0.53705441  0.37384302     1.90100
O32         O  0.55622809  0.56839679  0.41858588    -0.73800
O33         O  0.57834038  0.63860481  0.38018687    -0.73600
O34         O  0.62210053  0.60945497  0.41745166    -0.79300
O35         O  0.61800893  0.62867201  0.34740527    -0.77500
O36         O  0.60774014  0.57739369  0.37679481    -1.13600
O37         O  0.64503460  0.57182914  0.33035740    -0.72800
C38         C  0.61885479  0.54906286  0.32468139     0.97900
C39         C  0.57403097  0.54248685  0.42296961     0.94300
Al40       Al  0.57204272  0.60025946  0.39647719     1.55600
O41         O  0.65693118  0.52294272  0.37198908    -0.77400
C42         C  0.59175789  0.64637935  0.35930976     0.98500
C43         C  0.50238634  0.56495933  0.37359991     0.93400
O44         O  0.52947632  0.54202271  0.37470049    -0.82700
O45         O  0.39688384  0.04411693  0.14890957    -0.82200
C46         C  0.32473005  0.11991880  0.07266509     0.97200
O47         O  0.31048416  0.12060288  0.09482155    -0.71300
O48         O  0.28751168  0.06620132  0.11327222    -0.74900
Al49       Al  0.32966485  0.09642572  0.12444332     1.49000
C50         C  0.29090412  0.03714144  0.11448428     0.92400
O51         O  0.38971564  0.02963690  0.08119288    -0.81100
O52         O  0.46952806  0.09510707  0.10911652    -0.74700
Al53       Al  0.39191884  0.03958948  0.11489065     1.90100
O54         O  0.43045806  0.06970733  0.06892758    -0.73800
O55         O  0.40718220  0.14069139  0.10634857    -0.73600
O56         O  0.36498621  0.11066632  0.06819453    -0.79300
O57         O  0.36546551  0.12990017  0.13855287    -0.77500
O58         O  0.37848902  0.07941924  0.10988693    -1.13600
O59         O  0.33682114  0.07316539  0.15583767    -0.72800
C60         C  0.36555346  0.05263474  0.16311260     0.97900
C61         C  0.41638625  0.04236021  0.06599668     0.94300
Al62       Al  0.41442933  0.10226090  0.08998712     1.55600
O63         O  0.32972932  0.02453552  0.11710617    -0.77400
C64         C  0.39250040  0.14792052  0.12715755     0.98500
C65         C  0.48429034  0.06796042  0.11364226     0.93400
O66         O  0.45696659  0.04511746  0.11413829    -0.82700
O67         O  0.59136407  0.44167310  0.15435738    -0.82200
C68         C  0.64833595  0.36930375  0.07443910     0.97200
O69         O  0.66387556  0.36579098  0.09612116    -0.71300
O70         O  0.69552903  0.41558962  0.11753860    -0.74900
Al71       Al  0.64875987  0.38675642  0.12683631     1.49000
C72         C  0.69685377  0.44459981  0.12003935     0.92400
O73         O  0.59919529  0.46171342  0.08724114    -0.81100
O74         O  0.50924928  0.40086088  0.11360943    -0.74700
Al75       Al  0.59590171  0.44904758  0.12066682     1.90100
O76         O  0.55140867  0.42595763  0.07378648    -0.73800
O77         O  0.56123884  0.35065176  0.10809344    -0.73600
O78         O  0.60842034  0.38002862  0.07087519    -0.79300
O79         O  0.60921774  0.35375018  0.13886197    -0.77500
O80         O  0.60229589  0.40873850  0.11380527    -1.13600
O81         O  0.64408547  0.40549059  0.15922276    -0.72800
C82         C  0.61880513  0.42680106  0.16792313     0.97900
C83         C  0.57099774  0.45186451  0.07141787     0.94300
Al84       Al  0.56158300  0.39070985  0.09346797     1.55600
O85         O  0.65994836  0.45903617  0.12372964    -0.77400
C86         C  0.57690766  0.33987723  0.12781073     0.98500
C87         C  0.49874736  0.42858619  0.11873466     0.93400
O88         O  0.53019751  0.44892222  0.11950210    -0.82700
O89         O  0.94753928  0.95275802  0.11524398    -0.82200
C90         C  0.81813727  0.87230500  0.07306807     0.97200
O91         O  0.86091476  0.86661910  0.07256401    -0.71300
O92         O  0.89291464  0.91857424  0.05644022    -0.74900
Al93       Al  0.91003416  0.89405352  0.08324925     1.49000
C94         C  0.90103075  0.94706939  0.05511514     0.92400
O95         O  0.82138851  0.96532013  0.09962493    -0.81100
O96         O  0.86150041  0.90892458  0.15323785    -0.74700
Al97       Al  0.88409940  0.95629052  0.10726036     1.90100
O98         O  0.79063547  0.93004221  0.12364213    -0.73800
O99         O  0.86740015  0.85583571  0.12505832    -0.73600
O100        O  0.80115622  0.88391948  0.09231759    -0.79300
O101        O  0.93260976  0.86671083  0.10704874    -0.77500
O102        O  0.87634486  0.91545935  0.10445806    -1.13600
O103        O  0.96613805  0.91716753  0.08856510    -0.72800
C104        C  0.97753126  0.93867748  0.10298382     0.97900
C105        C  0.78742089  0.95532605  0.11182487     0.94300
Al106      Al  0.83369212  0.89582598  0.12214872     1.55600
O107        O  0.89935330  0.96388145  0.07386926    -0.77400
C108        C  0.90885413  0.84869582  0.11992544     0.98500
C109        C  0.86945721  0.93740640  0.15838697     0.93400
O110        O  0.87209614  0.95742780  0.14144227    -0.82700
O111        O  0.03611672  0.54226151  0.11992791    -0.82200
C112        C  0.16042985  0.62842003  0.08077924     0.97200
O113        O  0.11755693  0.63434305  0.08211051    -0.71300
O114        O  0.08406971  0.58531439  0.06222959    -0.74900
Al115      Al  0.06884421  0.60538845  0.09131730     1.49000
C116        C  0.07806960  0.55710234  0.05810851     0.92400
O117        O  0.15990668  0.53360714  0.09928860    -0.81100
O118        O  0.12272771  0.58197298  0.15837704    -0.74700
Al119      Al  0.09806400  0.54051719  0.10950751     1.90100
O120        O  0.19158403  0.56401719  0.12667122    -0.73800
O121        O  0.11634097  0.63837874  0.13392945    -0.73600
O122        O  0.17877761  0.61400762  0.09857560    -0.79300
O123        O  0.04898696  0.62938425  0.11769968    -0.77500
O124        O  0.10475336  0.58144297  0.10983745    -1.13600
O125        O  0.01283543  0.58044385  0.09617054    -0.72800
C126        C  0.00398474  0.55719177  0.10986120     0.97900
C127        C  0.19404471  0.54096546  0.11245083     0.94300
Al128      Al  0.14886168  0.59864925  0.12800156     1.55600
O129        O  0.07962637  0.53752345  0.07548893    -0.77400
C130        C  0.07445420  0.64628947  0.13067346     0.98500
C131        C  0.11619233  0.55286405  0.16182755     0.93400
O132        O  0.11369756  0.53494211  0.14352702    -0.82700
O133        O  0.95237920  0.04087475  0.36616792    -0.82200
C134        C  0.81991505  0.12295347  0.40269225     0.97200
O135        O  0.86262817  0.12894831  0.40254588    -0.71300
O136        O  0.88960769  0.07812665  0.42259816    -0.74900
Al137      Al  0.91145926  0.09999197  0.39530091     1.49000
C138        C  0.90158411  0.05070332  0.42654490     0.92400
O139        O  0.82772898  0.02613119  0.38302550    -0.81100
O140        O  0.86365289  0.07837337  0.32612642    -0.74700
Al141      Al  0.88917211  0.03586120  0.37449006     1.90100
O142        O  0.79400726  0.05831903  0.35737299    -0.73800
O143        O  0.86970596  0.13351230  0.35137563    -0.73600
O144        O  0.80344728  0.10816030  0.38468333    -0.79300
O145        O  0.93573593  0.12466393  0.36996019    -0.77500
O146        O  0.87932976  0.07644719  0.37491573    -1.13600
O147        O  0.96814300  0.07563806  0.39400045    -0.72800
C148        C  0.98106491  0.05353379  0.38045555     0.97900
C149        C  0.79239577  0.03462389  0.37130856     0.94300
Al150      Al  0.83614396  0.09357948  0.35619893     1.55600
O151        O  0.90510677  0.03194018  0.40889700    -0.77400
C152        C  0.91122662  0.14152235  0.35627991     0.98500
C153        C  0.87211496  0.04980012  0.32219671     0.93400
O154        O  0.87636920  0.03114654  0.34010194    -0.82700
O155        O  0.03807070  0.44890257  0.36529033    -0.82200
C156        C  0.16343689  0.36768768  0.41165781     0.97200
O157        O  0.12080370  0.36154539  0.40931363    -0.71300
O158        O  0.08129741  0.41143786  0.42434608    -0.74900
Al159      Al  0.07218898  0.38798971  0.39618641     1.49000
C160        C  0.07616550  0.44014290  0.42636703     0.92400
O161        O  0.16113706  0.46316461  0.38537600    -0.81100
O162        O  0.13449556  0.40669823  0.33031076    -0.74700
Al163      Al  0.10035926  0.45245663  0.37531449     1.90100
O164        O  0.19813868  0.42923009  0.36344849    -0.73800
O165        O  0.12723542  0.35242410  0.35819105    -0.73600
O166        O  0.18359121  0.38174535  0.39415465    -0.79300
O167        O  0.05694135  0.36122868  0.37032098    -0.77500
O168        O  0.10935188  0.41158459  0.37787265    -1.13600
O169        O  0.01626199  0.40981977  0.38828036    -0.72800
C170        C  0.00658562  0.43331542  0.37538164     0.97900
C171        C  0.19750652  0.45448714  0.37507804     0.94300
Al172      Al  0.15683729  0.39373713  0.36273054     1.55600
O173        O  0.08178478  0.45822060  0.40838311    -0.77400
C174        C  0.08533970  0.34378361  0.36011351     0.98500
C175        C  0.12366340  0.43468429  0.32476365     0.93400
O176        O  0.11577157  0.45430586  0.34138193    -0.82700
O177        O  0.51705774  0.04341786  0.60949777    -0.82200
C178        C  0.65241797  0.11442131  0.56561595     0.97200
O179        O  0.61560618  0.10018873  0.56080168    -0.71300
O180        O  0.55127225  0.05851622  0.56332700    -0.74900
Al181      Al  0.56394323  0.09539291  0.58107033     1.49000
C182        C  0.56612024  0.03107850  0.56484678     0.92400
O183        O  0.64357289  0.02504692  0.62057758    -0.81100
O184        O  0.63656355  0.07557461  0.65153841    -0.74700
Al185      Al  0.58183245  0.03883606  0.61401252     1.90100
O186        O  0.68631411  0.06457752  0.60884644    -0.73800
O187        O  0.60522276  0.13007677  0.62920941    -0.73600
O188        O  0.66375133  0.11884752  0.58801143    -0.79300
O189        O  0.56924738  0.13643962  0.59407077    -0.77500
O190        O  0.59665965  0.07685836  0.60448309    -1.13600
O191        O  0.50725293  0.09195639  0.59833899    -0.72800
C192        C  0.49100081  0.06619336  0.60530299     0.97900
C193        C  0.68211949  0.03608136  0.61418713     0.94300
Al194      Al  0.64407915  0.09615663  0.61842509     1.55600
O195        O  0.58967198  0.02205669  0.58279276    -0.77400
C196        C  0.57904437  0.14603864  0.61529259     0.98500
C197        C  0.60454893  0.05804367  0.66015560     0.93400
O198        O  0.57151453  0.05122613  0.64637204    -0.82700
O199        O  0.45837457  0.44665597  0.63545586    -0.82200
C200        C  0.33641976  0.37619866  0.57615122     0.97200
O201        O  0.37928920  0.37085070  0.57785449    -0.71300
O202        O  0.41993178  0.42336793  0.56904961    -0.74900
Al203      Al  0.42653446  0.39497305  0.59489880     1.49000
C204        C  0.43201480  0.45125399  0.57071534     0.92400
O205        O  0.34242250  0.46841148  0.60690809    -0.81100
O206        O  0.35463975  0.40675710  0.66069468    -0.74700
Al207      Al  0.39966928  0.45542745  0.62090149     1.90100
O208        O  0.29999937  0.43290325  0.62493085    -0.73800
O209        O  0.36808520  0.35580686  0.63127629    -0.73600
O210        O  0.31558354  0.38739133  0.59435918    -0.79300
O211        O  0.43844458  0.36385084  0.61818744    -0.77500
O212        O  0.38853381  0.41558525  0.61446966    -1.13600
O213        O  0.48215066  0.41579568  0.60660161    -0.72800
C214        C  0.49121650  0.43516407  0.62338232     0.97900
C215        C  0.30355424  0.45916158  0.61451076     0.94300
Al216      Al  0.33881521  0.39682500  0.62676718     1.55600
O217        O  0.42858095  0.46557180  0.59060780    -0.77400
C218        C  0.40969483  0.34686619  0.62910453     0.98500
C219        C  0.36072403  0.43466790  0.66772746     0.93400
O220        O  0.37394857  0.45520575  0.65279648    -0.82700
O221        O  0.53102367  0.95711436  0.86769682    -0.82200
C222        C  0.65080920  0.86962200  0.90666151     0.97200
O223        O  0.60788576  0.86414829  0.90559105    -0.71300
O224        O  0.58033763  0.91479400  0.92470804    -0.74900
Al225      Al  0.56126544  0.89380196  0.89653872     1.49000
C226        C  0.57723594  0.94341603  0.92784193     0.92400
O227        O  0.65804634  0.96212253  0.88389614    -0.81100
O228        O  0.61147017  0.91216956  0.82787412    -0.74700
Al229      Al  0.59432726  0.95686900  0.87587971     1.90100
O230        O  0.68367779  0.92947567  0.85703975    -0.73800
O231        O  0.60201875  0.85704852  0.85436445    -0.73600
O232        O  0.66968714  0.88154043  0.88784646    -0.79300
O233        O  0.53720908  0.86929722  0.87113998    -0.77500
O234        O  0.59734150  0.91576354  0.87661206    -1.13600
O235        O  0.50744452  0.91976296  0.89222894    -0.72800
C236        C  0.49908586  0.94310609  0.87875370     0.97900
C237        C  0.68963692  0.95375813  0.86958738     0.94300
Al238      Al  0.63838219  0.89612851  0.85825975     1.55600
O239        O  0.58043690  0.96201553  0.90994933    -0.77400
C240        C  0.55954187  0.85072856  0.85839064     0.98500
C241        C  0.60710649  0.94135750  0.82382727     0.93400
O242        O  0.60606981  0.96024442  0.84150129    -0.82700
O243        O  0.43599145  0.53609409  0.86017319    -0.82200
C244        C  0.32390873  0.61560586  0.91539024     0.97200
O245        O  0.36726197  0.61929915  0.91396672    -0.71300
O246        O  0.40164539  0.56623340  0.92511606    -0.74900
Al247      Al  0.41203954  0.59240960  0.89826973     1.49000
C248        C  0.41123779  0.53796955  0.92509816     0.92400
O249        O  0.31896070  0.52459232  0.88901269    -0.81100
O250        O  0.34337563  0.58166469  0.83226294    -0.74700
Al251      Al  0.37724326  0.53230511  0.87473617     1.90100
O252        O  0.28208176  0.55926687  0.86699694    -0.73800
O253        O  0.35977965  0.63393622  0.86148570    -0.73600
O254        O  0.30195034  0.60489930  0.89721062    -0.79300
O255        O  0.42866418  0.62147768  0.87429308    -0.77500
O256        O  0.37207152  0.57296050  0.87919013    -1.13600
O257        O  0.46460821  0.56873562  0.88716845    -0.72800
C258        C  0.47015138  0.54821795  0.87089824     0.97900
C259        C  0.28195374  0.53427979  0.87949808     0.94300
Al260      Al  0.32564515  0.59370591  0.86548333     1.55600
O261        O  0.40537739  0.52223766  0.90595170    -0.77400
C262        C  0.40225244  0.64097422  0.86463875     0.98500
C263        C  0.34498427  0.55305125  0.82619324     0.93400
O264        O  0.35188499  0.53239057  0.84234696    -0.82700
O265        O  0.08185634  0.94763686  0.65100219    -0.82200
C266        C  0.14399234  0.88237937  0.56818581     0.97200
O267        O  0.15863686  0.87708739  0.58984385    -0.71300
O268        O  0.18742997  0.92860333  0.60948005    -0.74900
Al269      Al  0.14474498  0.89840571  0.62074749     1.49000
C270        C  0.18747223  0.95714388  0.61411295     0.92400
O271        O  0.09225278  0.97312336  0.58536130    -0.81100
O272        O  0.00549135  0.90799104  0.60865725    -0.74700
Al273      Al  0.08756910  0.95829146  0.61782387     1.90100
O274        O  0.04542395  0.93808063  0.56974705    -0.73800
O275        O  0.06143576  0.86061764  0.60129713    -0.73600
O276        O  0.10478545  0.89412464  0.56484794    -0.79300
O277        O  0.10675839  0.86505142  0.63336221    -0.77500
O278        O  0.09670745  0.91919779  0.60894752    -1.13600
O279        O  0.14273138  0.91760131  0.65356604    -0.72800
C280        C  0.11440873  0.93632167  0.66342661     0.97900
C281        C  0.06528916  0.96415537  0.56872085     0.94300
Al282      Al  0.05773819  0.90143495  0.58792107     1.55600
O283        O  0.15108897  0.96957432  0.62181328    -0.77400
C284        C  0.07639927  0.85025800  0.62140754     0.98500
C285        C  0.99258358  0.93484369  0.61474170     0.93400
O286        O  0.02190474  0.95654505  0.61582719    -0.82700
O287        O  0.91297028  0.55151453  0.65330085    -0.82200
C288        C  0.83821603  0.61792225  0.57111221     0.97200
O289        O  0.82535458  0.62057625  0.59321305    -0.71300
O290        O  0.80296620  0.56576151  0.61334863    -0.74900
Al291      Al  0.84421193  0.59823830  0.62328944     1.49000
C292        C  0.80701267  0.53710317  0.61820485     0.92400
O293        O  0.90533079  0.52468287  0.58786975    -0.81100
O294        O  0.98397901  0.59526150  0.60557503    -0.74700
Al295      Al  0.90832783  0.54086631  0.61993246     1.90100
O296        O  0.94003730  0.56363006  0.56957844    -0.73800
O297        O  0.92123961  0.63957721  0.60143789    -0.73600
O298        O  0.87601843  0.60492683  0.56669964    -0.79300
O299        O  0.88024534  0.63316088  0.63479928    -0.77500
O300        O  0.89335608  0.57946724  0.61048797    -1.13600
O301        O  0.85042145  0.57918425  0.65580222    -0.72800
C302        C  0.87974358  0.56128754  0.66585047     0.97900
C303        C  0.92716778  0.53572524  0.56998243     0.94300
Al304      Al  0.92706002  0.59919118  0.58789496     1.55600
O305        O  0.84595350  0.52603349  0.62389131    -0.77400
C306        C  0.90687743  0.64959176  0.62162799     0.98500
C307        C  0.00061516  0.56965667  0.61267363     0.93400
O308        O  0.97429692  0.54690256  0.61752414    -0.82700
O309        O  0.08738402  0.04798910  0.83305582    -0.82200
C310        C  0.14854563  0.12495373  0.91141517     0.97200
O311        O  0.16130951  0.12860297  0.88922125    -0.71300
O312        O  0.18995681  0.07655550  0.87064173    -0.74900
Al313      Al  0.14510426  0.10459097  0.85940394     1.49000
C314        C  0.18973282  0.04742374  0.87016343     0.92400
O315        O  0.09001818  0.03182761  0.90048821    -0.81100
O316        O  0.00658531  0.09531208  0.87454761    -0.74700
Al317      Al  0.08909896  0.04345952  0.86728795     1.90100
O318        O  0.04736690  0.06970961  0.91380645    -0.73800
O319        O  0.06448230  0.14341893  0.87882528    -0.73600
O320        O  0.10988296  0.11261469  0.91579191    -0.79300
O321        O  0.10551828  0.13642708  0.84584904    -0.77500
O322        O  0.09823898  0.08384952  0.87320677    -1.13600
O323        O  0.14181358  0.08286916  0.82767447    -0.72800
C324        C  0.11724796  0.06053073  0.81961030     0.97900
C325        C  0.06357820  0.04299659  0.91612240     0.94300
Al326      Al  0.06074134  0.10369489  0.89381129     1.55600
O327        O  0.15260259  0.03259216  0.86720501    -0.77400
C328        C  0.07764818  0.15252257  0.85811185     0.98500
C329        C  0.99397019  0.06814590  0.86850140     0.93400
O330        O  0.02304844  0.04643224  0.86665119    -0.82700
O331        O  0.88925608  0.44943228  0.83870655    -0.82200
C332        C  0.81936152  0.37282575  0.91464696     0.97200
O333        O  0.80881990  0.36915032  0.89205589    -0.71300
O334        O  0.78149252  0.42205346  0.87187887    -0.74900
Al335      Al  0.82766853  0.39368617  0.86270260     1.49000
C336        C  0.78310207  0.45128373  0.87122871     0.92400
O337        O  0.88266703  0.46548877  0.90609782    -0.81100
O338        O  0.96246404  0.39885520  0.88175951    -0.74700
Al339      Al  0.88465814  0.45360404  0.87273964     1.90100
O340        O  0.92394398  0.42721518  0.92014765    -0.73800
O341        O  0.90171933  0.35267894  0.88582236    -0.73600
O342        O  0.85652708  0.38625084  0.92048926    -0.79300
O343        O  0.86927792  0.36245011  0.85050635    -0.77500
O344        O  0.87303664  0.41368149  0.87837098    -1.13600
O345        O  0.83424391  0.41593221  0.83128922    -0.72800
C346        C  0.85976778  0.43836727  0.82431866     0.97900
C347        C  0.91064725  0.45483819  0.92157062     0.94300
Al348      Al  0.90761648  0.39293442  0.90013939     1.55600
O349        O  0.82116612  0.46564137  0.87061869    -0.77400
C350        C  0.89433982  0.34535773  0.86388963     0.98500
C351        C  0.97731240  0.42558924  0.87597531     0.93400
O352        O  0.95029137  0.44848909  0.87364819    -0.82700
C353        C  0.91669955  0.31675610  0.85454397     0.00900
C354        C  0.95397027  0.31898007  0.83804401     0.03800
C355        C  0.98227935  0.29289067  0.83366582    -0.12300
C356        C  0.97375742  0.26445631  0.84592508     0.23100
C357        C  0.93492197  0.26185808  0.86136410    -0.12900
C358        C  0.90651181  0.28781519  0.86554781     0.04500
C359        C  0.00680547  0.23782373  0.84423298     0.26900
C360        C  0.99538408  0.21124516  0.83039456    -0.13600
C361        C  0.02064349  0.18345846  0.83351133     0.05000
C362        C  0.05939879  0.18268005  0.84920450    -0.09500
C363        C  0.07357495  0.21011768  0.86106061     0.05800
C364        C  0.04695236  0.23739395  0.85900999    -0.13900
Br365      Br  0.92204283  0.22302005  0.87791563    -0.06000
Br366      Br  0.96833245  0.35843645  0.82292158    -0.00300
Br367      Br  0.99901827  0.14555311  0.81865620     0.00100
Br368      Br  0.06344083  0.27334847  0.87809795    -0.04300
Br369      Br  0.85365553  0.28395693  0.88671443     0.00200
Br370      Br  0.03392941  0.29631099  0.81168081    -0.03600
Br371      Br  0.94347736  0.21258685  0.80824548    -0.04500
Br372      Br  0.12813555  0.20946138  0.88146442    -0.00500
C373        C  0.87269781  0.54785051  0.69123505     0.00900
C374        C  0.82757769  0.54307426  0.70087793     0.03800
C375        C  0.82042909  0.52218295  0.72070051    -0.12300
C376        C  0.85804300  0.50729969  0.73220217     0.23100
C377        C  0.90301688  0.51406302  0.72418468    -0.12900
C378        C  0.91035870  0.53414106  0.70404858     0.04500
C379        C  0.85156800  0.48856706  0.75516372     0.26900
C380        C  0.84864993  0.50428759  0.77751014    -0.13600
C381        C  0.84900184  0.48766683  0.79975298     0.05000
C382        C  0.85329213  0.45470904  0.80017001    -0.09500
C383        C  0.85336859  0.43879873  0.77763014     0.05800
C384        C  0.85254824  0.45570385  0.75520662    -0.13900
Br385      Br  0.95496153  0.49579925  0.74129595    -0.06000
Br386      Br  0.77426129  0.56370058  0.68702742    -0.00300
Br387      Br  0.84187700  0.51138651  0.82929293     0.00100
Br388      Br  0.85387072  0.43415004  0.72444318    -0.04300
Br389      Br  0.97305618  0.54384251  0.69551713     0.00200
Br390      Br  0.75874036  0.51289169  0.73186383    -0.03600
Br391      Br  0.84593579  0.54925542  0.77753584    -0.04500
Br392      Br  0.85695926  0.39413249  0.77741635    -0.00500
C393        C  0.12142739  0.94928097  0.68846694     0.00900
C394        C  0.08343705  0.95150921  0.70447889     0.03800
C395        C  0.08474728  0.97203345  0.72455733    -0.12300
C396        C  0.12363059  0.99123551  0.72856929     0.23100
C397        C  0.16227254  0.98825791  0.71317811    -0.12900
C398        C  0.16173875  0.96676314  0.69372780     0.04500
C399        C  0.12623789  0.01125296  0.75089382     0.26900
C400        C  0.10772519  0.04160072  0.75128964    -0.13600
C401        C  0.10688038  0.05875948  0.77340666     0.05000
C402        C  0.12540330  0.04596802  0.79515879    -0.09500
C403        C  0.14605717  0.01613491  0.79413775     0.05800
C404        C  0.14623930  0.99898880  0.77229071    -0.13900
Br405      Br  0.21562010  0.01440959  0.71849927    -0.06000
Br406      Br  0.02989799  0.92563045  0.69917348    -0.00300
Br407      Br  0.07838420  0.09902782  0.77430555     0.00100
Br408      Br  0.17266971  0.95774911  0.77170596    -0.04300
Br409      Br  0.21643217  0.96202192  0.67425491     0.00200
Br410      Br  0.03321106  0.97394593  0.74671240    -0.03600
Br411      Br  0.08307453  0.05926063  0.72154859    -0.04500
Br412      Br  0.17401528  0.99738824  0.82247903    -0.00500
C413        C  0.92297602  0.68097267  0.62912833     0.00900
C414        C  0.95425105  0.68437486  0.64879868     0.03800
C415        C  0.97921103  0.71243350  0.65174467    -0.12300
C416        C  0.97297537  0.73726136  0.63506976     0.23100
C417        C  0.93913200  0.73465766  0.61653825    -0.12900
C418        C  0.91430056  0.70665810  0.61358206     0.04500
C419        C  0.00396169  0.76518130  0.63565311     0.26900
C420        C  0.98979038  0.79278841  0.64713134    -0.13600
C421        C  0.01584243  0.82039180  0.64423950     0.05000
C422        C  0.05673766  0.82042171  0.63030897    -0.09500
C423        C  0.07264827  0.79233305  0.62041990     0.05800
C424        C  0.04620890  0.76487858  0.62285738    -0.13900
Br425      Br  0.92844574  0.76908847  0.59442614    -0.06000
Br426      Br  0.96543856  0.64976279  0.67052543    -0.00300
Br427      Br  0.99406673  0.85870374  0.65800701     0.00100
Br428      Br  0.06633160  0.72723775  0.60728993    -0.04300
Br429      Br  0.86875404  0.70319024  0.58783948     0.00200
Br430      Br  0.02361484  0.71654916  0.67788063    -0.03600
Br431      Br  0.93340292  0.79298979  0.66571688    -0.04500
Br432      Br  0.12989301  0.79202868  0.60260500    -0.00500
C433        C  0.73967064  0.46889335  0.86942425     0.00900
C434        C  0.71268262  0.46690369  0.84788687     0.03800
C435        C  0.67082839  0.48311717  0.84603346    -0.12300
C436        C  0.65577059  0.50145095  0.86563395     0.23100
C437        C  0.68334991  0.50429032  0.88684260    -0.12900
C438        C  0.72515812  0.48784144  0.88880565     0.04500
C439        C  0.60801493  0.51363041  0.86541695     0.26900
C440        C  0.59824598  0.54406742  0.85729023    -0.13600
C441        C  0.55266480  0.55535923  0.85827327     0.05000
C442        C  0.51675047  0.53581918  0.86655614    -0.09500
C443        C  0.52634238  0.50465527  0.87304699     0.05800
C444        C  0.57196680  0.49393101  0.87310934    -0.13900
Br445      Br  0.66258429  0.52973347  0.91350510    -0.06000
Br446      Br  0.73249969  0.44188716  0.82076770    -0.00300
Br447      Br  0.53886272  0.59706276  0.84746497     0.00100
Br448      Br  0.58556158  0.45228896  0.88446021    -0.04300
Br449      Br  0.76083473  0.48931476  0.91864912     0.00200
Br450      Br  0.63281380  0.47928213  0.81705666    -0.03600
Br451      Br  0.64729332  0.56997815  0.84482127    -0.04500
Br452      Br  0.47776587  0.47628497  0.88257363    -0.00500
C453        C  0.02711846  0.43186324  0.87464179     0.00900
C454        C  0.05352876  0.43114973  0.89643680     0.03800
C455        C  0.09637740  0.44644839  0.89737072    -0.12300
C456        C  0.11439448  0.46057962  0.87616165     0.23100
C457        C  0.09034259  0.45829747  0.85376895    -0.12900
C458        C  0.04591794  0.44502358  0.85321019     0.04500
C459        C  0.15732032  0.47927810  0.87782833     0.26900
C460        C  0.15472362  0.51185191  0.87926623    -0.13600
C461        C  0.19525110  0.52979595  0.88127239     0.05000
C462        C  0.23901783  0.51521179  0.88136973    -0.09500
C463        C  0.24113123  0.48217335  0.88084168     0.05800
C464        C  0.20034775  0.46446654  0.87898791    -0.13900
Br465      Br  0.11790960  0.47416509  0.82414756    -0.06000
Br466      Br  0.03012037  0.41151331  0.92574000    -0.00300
Br467      Br  0.18965432  0.57425842  0.88494730     0.00100
Br468      Br  0.20297449  0.41962599  0.87737511    -0.04300
Br469      Br  0.00983089  0.44609900  0.82345434     0.00200
Br470      Br  0.12920319  0.44990861  0.92806674    -0.03600
Br471      Br  0.09516585  0.53184342  0.87835522    -0.04500
Br472      Br  0.29904798  0.46000910  0.88088810    -0.00500
C473        C  0.73265341  0.97314175  0.86664024     0.00900
C474        C  0.77559332  0.95947706  0.86033516     0.03800
C475        C  0.81635156  0.97759986  0.86004058    -0.12300
C476        C  0.81438322  0.01006122  0.86311902     0.23100
C477        C  0.77124256  0.02427153  0.86649950    -0.12900
C478        C  0.73085912  0.00605516  0.86902144     0.04500
C479        C  0.85780273  0.02906418  0.86358404     0.26900
C480        C  0.87417169  0.04127850  0.88593017    -0.13600
C481        C  0.91646467  0.05756977  0.88682186     0.05000
C482        C  0.94442636  0.05992451  0.86575300    -0.09500
C483        C  0.92763461  0.04834427  0.84332047     0.05800
C484        C  0.88374031  0.03402314  0.84205062    -0.13900
Br485      Br  0.76771841  0.06910758  0.86720977    -0.06000
Br486      Br  0.78029837  0.91631463  0.85102076    -0.00300
Br487      Br  0.93697462  0.07490356  0.91748114     0.00100
Br488      Br  0.85945948  0.02063178  0.81090528    -0.04300
Br489      Br  0.67318547  0.02756721  0.87386740     0.00200
Br490      Br  0.87553097  0.95768636  0.85620345    -0.03600
Br491      Br  0.84009739  0.03387995  0.91576790    -0.04500
Br492      Br  0.96561016  0.05138772  0.81449226    -0.00500
C493        C  0.45202070  0.95592894  0.87734887     0.00900
C494        C  0.42197434  0.94798081  0.85802018     0.03800
C495        C  0.37747998  0.96101332  0.85680256    -0.12300
C496        C  0.36358639  0.98267474  0.87453188     0.23100
C497        C  0.39433458  0.99165115  0.89318060    -0.12900
C498        C  0.43840875  0.97837440  0.89452389     0.04500
C499        C  0.31812575  0.99807740  0.87266547     0.26900
C500        C  0.31285570  0.02388782  0.85700113    -0.13600
C501        C  0.27070544  0.03978605  0.85607502     0.05000
C502        C  0.23398289  0.03059971  0.87152086    -0.09500
C503        C  0.23943960  0.00480215  0.88736179     0.05800
C504        C  0.28136479  0.98839955  0.88773089    -0.13900
Br505      Br  0.37665997  0.02347165  0.91609820    -0.06000
Br506      Br  0.44298438  0.92127079  0.83227718    -0.00300
Br507      Br  0.26310555  0.07299010  0.83243051     0.00100
Br508      Br  0.28913004  0.95299320  0.90919121    -0.04300
Br509      Br  0.48126490  0.99316219  0.91870267     0.00200
Br510      Br  0.33603957  0.95029166  0.83041845    -0.03600
Br511      Br  0.36402794  0.03783789  0.83715143    -0.04500
Br512      Br  0.19070617  0.99277886  0.90951876    -0.00500
C513        C  0.42274332  0.67247776  0.85899088     0.00900
C514        C  0.45045699  0.68741465  0.87704930     0.03800
C515        C  0.47475945  0.71509125  0.87164948    -0.12300
C516        C  0.47177255  0.72890214  0.84828683     0.23100
C517        C  0.44445992  0.71424080  0.83014223    -0.12900
C518        C  0.41977330  0.68636011  0.83550600     0.04500
C519        C  0.49251327  0.76079719  0.84458233     0.26900
C520        C  0.46617625  0.78689854  0.85059246    -0.13600
C521        C  0.48713852  0.81639538  0.85353908     0.05000
C522        C  0.53595273  0.82064961  0.85016889    -0.09500
C523        C  0.56115142  0.79467383  0.84138175     0.05800
C524        C  0.53966501  0.76501287  0.83900306    -0.13900
Br525      Br  0.44166527  0.73232435  0.79785936    -0.06000
Br526      Br  0.45398296  0.67153676  0.91015977    -0.00300
Br527      Br  0.44648393  0.84975896  0.86281302     0.00100
Br528      Br  0.57489402  0.72941282  0.82899634    -0.04300
Br529      Br  0.38276772  0.66691360  0.81054563     0.00200
Br530      Br  0.51208869  0.73480450  0.89663861    -0.03600
Br531      Br  0.40065969  0.78136234  0.85620228    -0.04500
Br532      Br  0.62559580  0.79832586  0.83289471    -0.00500
C533        C  0.76520366  0.51667804  0.61811505     0.00900
C534        C  0.73381884  0.51794007  0.59831947     0.03800
C535        C  0.69030605  0.50321274  0.60002347    -0.12300
C536        C  0.67783501  0.48695047  0.62151851     0.23100
C537        C  0.71040206  0.48377053  0.64059124    -0.12900
C538        C  0.75471900  0.49719889  0.63835508     0.04500
C539        C  0.63074267  0.47289491  0.62391676     0.26900
C540        C  0.59380282  0.49101878  0.63219892    -0.13600
C541        C  0.54865458  0.47851756  0.63328686     0.05000
C542        C  0.53995714  0.44701799  0.62658822    -0.09500
C543        C  0.57819214  0.42849494  0.61958930     0.05800
C544        C  0.62286281  0.44164117  0.61770434    -0.13900
Br545      Br  0.69338876  0.46216393  0.67030627    -0.06000
Br546      Br  0.75294648  0.53649169  0.56777178    -0.00300
Br547      Br  0.49966529  0.50645370  0.64243266     0.00100
Br548      Br  0.67355384  0.41730280  0.60552892    -0.04300
Br549      Br  0.80115754  0.48676222  0.66233690     0.00200
Br550      Br  0.64736064  0.50554763  0.57304184    -0.03600
Br551      Br  0.60543322  0.53375162  0.64116122    -0.04500
Br552      Br  0.57091677  0.38466383  0.61313728    -0.00500
C553        C  0.26199173  0.47955589  0.61276631     0.00900
C554        C  0.26586062  0.51226278  0.61580427     0.03800
C555        C  0.22589628  0.53087941  0.61644100    -0.12300
C556        C  0.18182917  0.51709451  0.61528374     0.23100
C557        C  0.17769460  0.48467443  0.61291160    -0.12900
C558        C  0.21730264  0.46608985  0.61081392     0.04500
C559        C  0.13944581  0.53651716  0.61447372     0.26900
C560        C  0.11924213  0.54778139  0.63608380    -0.13600
C561        C  0.07616379  0.56292521  0.63499040     0.05000
C562        C  0.05134600  0.56443797  0.61281669    -0.09500
C563        C  0.07354999  0.55559473  0.59097714     0.05800
C564        C  0.11767273  0.54208131  0.59181018    -0.13900
Br565      Br  0.11705536  0.46573993  0.61283463    -0.06000
Br566      Br  0.32497531  0.53225697  0.62091254    -0.00300
Br567      Br  0.05313152  0.58420092  0.66306491     0.00100
Br568      Br  0.14779035  0.52955404  0.56201888    -0.04300
Br569      Br  0.20892032  0.42231678  0.60425655     0.00200
Br570      Br  0.23114229  0.57547982  0.61898694    -0.03600
Br571      Br  0.14909339  0.54071118  0.66722296    -0.04500
Br572      Br  0.04408943  0.56164277  0.55972991    -0.00500
C573        C  0.35082506  0.44568844  0.69301098     0.00900
C574        C  0.38561014  0.44511683  0.71113408     0.03800
C575        C  0.38182664  0.46373729  0.73235011    -0.12300
C576        C  0.34484783  0.48485277  0.73483629     0.23100
C577        C  0.31009245  0.48538542  0.71669716    -0.12900
C578        C  0.31203053  0.46494697  0.69662749     0.04500
C579        C  0.34118707  0.50538012  0.75695403     0.26900
C580        C  0.30979892  0.49772731  0.77567520    -0.13600
C581        C  0.30707647  0.51619479  0.79683975     0.05000
C582        C  0.33774996  0.54150115  0.80056615    -0.09500
C583        C  0.36702665  0.55042531  0.78113440     0.05800
C584        C  0.36817048  0.53272049  0.75928014    -0.13900
Br585      Br  0.26109472  0.51555698  0.71857044    -0.06000
Br586      Br  0.43959175  0.42006182  0.70605462    -0.00300
Br587      Br  0.25965172  0.50714120  0.82041163     0.00100
Br588      Br  0.40699995  0.54556832  0.73250222    -0.04300
Br589      Br  0.26088424  0.46335928  0.67411274     0.00200
Br590      Br  0.42773619  0.46080997  0.75785530    -0.03600
Br591      Br  0.27159086  0.46098003  0.77279971    -0.04500
Br592      Br  0.40685277  0.58598541  0.78480046    -0.00500
C593        C  0.72278604  0.01549467  0.61360485     0.00900
C594        C  0.73650834  0.99887539  0.63476243     0.03800
C595        C  0.77775242  0.98180071  0.63475547    -0.12300
C596        C  0.80626308  0.98213813  0.61393730     0.23100
C597        C  0.79119838  0.99715693  0.59232658    -0.12900
C598        C  0.74841935  0.01253871  0.59190264     0.04500
C599        C  0.85301587  0.96822696  0.61547601     0.26900
C600        C  0.88800123  0.98396888  0.62834328    -0.13600
C601        C  0.93182121  0.97056335  0.63105704     0.05000
C602        C  0.94291479  0.94279679  0.61849018    -0.09500
C603        C  0.90683325  0.92625169  0.60650319     0.05800
C604        C  0.86193632  0.93885383  0.60540576    -0.13900
Br605      Br  0.82988209  0.99783078  0.56368480    -0.06000
Br606      Br  0.69990184  0.99980707  0.66408099    -0.00300
Br607      Br  0.97498076  0.98995514  0.65347819     0.00100
Br608      Br  0.81235363  0.91632039  0.58967794    -0.04300
Br609      Br  0.72230178  0.02639706  0.56120239     0.00200
Br610      Br  0.79624048  0.95863778  0.66355360    -0.03600
Br611      Br  0.87619587  0.02476223  0.64151599    -0.04500
Br612      Br  0.91729706  0.88665995  0.59107462    -0.00500
C613        C  0.44106577  0.06078209  0.60663636     0.00900
C614        C  0.41618141  0.05585923  0.58474302     0.03800
C615        C  0.37310548  0.04079754  0.58543717    -0.12300
C616        C  0.35382558  0.03220279  0.60811053     0.23100
C617        C  0.37671814  0.03979528  0.63008503    -0.12900
C618        C  0.42092119  0.05330350  0.62932357     0.04500
C619        C  0.31133984  0.01305957  0.60883473     0.26900
C620        C  0.26796453  0.02709482  0.60639770    -0.13600
C621        C  0.22758523  0.00886311  0.60719607     0.05000
C622        C  0.23036729  0.97621088  0.61126561    -0.09500
C623        C  0.27470263  0.96222739  0.61319957     0.05800
C624        C  0.31476944  0.98070945  0.61186289    -0.13900
Br625      Br  0.34836367  0.03002044  0.66109279    -0.06000
Br626      Br  0.44250232  0.06733311  0.55360059    -0.00300
Br627      Br  0.16946073  0.02963914  0.60126988     0.00100
Br628      Br  0.37510979  0.96185892  0.61450080    -0.04300
Br629      Br  0.45511867  0.05999813  0.65920312     0.00200
Br630      Br  0.34215345  0.02966737  0.55533504    -0.03600
Br631      Br  0.26442528  0.07164613  0.60213973    -0.04500
Br632      Br  0.28265647  0.91805447  0.61854542    -0.00500
C633        C  0.60684013  0.04201658  0.68504372     0.00900
C634        C  0.58785073  0.01135237  0.68826708     0.03800
C635        C  0.59124615  0.99555765  0.71091323    -0.12300
C636        C  0.61338122  0.00937010  0.73096568     0.23100
C637        C  0.63217851  0.03955332  0.72824011    -0.12900
C638        C  0.62890531  0.05581082  0.70552785     0.04500
C639        C  0.61335187  0.99239341  0.75513809     0.26900
C640        C  0.57771057  0.99788360  0.77198007    -0.13600
C641        C  0.57365340  0.97956254  0.79340653     0.05000
C642        C  0.60555045  0.95541287  0.79860937    -0.09500
C643        C  0.64077134  0.94950882  0.78141163     0.05800
C644        C  0.64464810  0.96792636  0.75987388    -0.13900
Br645      Br  0.66200217  0.05858004  0.75597548    -0.06000
Br646      Br  0.55830047  0.98819128  0.66228812    -0.00300
Br647      Br  0.52278254  0.98741094  0.81513929     0.00100
Br648      Br  0.69311663  0.95991329  0.73671433    -0.04300
Br649      Br  0.65240863  0.09767496  0.70323497     0.00200
Br650      Br  0.56494993  0.95426865  0.71488371    -0.03600
Br651      Br  0.53389107  0.03064391  0.76541787    -0.04500
Br652      Br  0.68521279  0.91717949  0.78770017    -0.00500
C653        C  0.55792974  0.17609049  0.62320857     0.00900
C654        C  0.53124405  0.17778755  0.64479818     0.03800
C655        C  0.50490944  0.20469964  0.64986102    -0.12300
C656        C  0.50426940  0.23000000  0.63326465     0.23100
C657        C  0.53191086  0.22868051  0.61211272    -0.12900
C658        C  0.55870780  0.20210982  0.60720559     0.04500
C659        C  0.47518852  0.25827615  0.63777431     0.26900
C660        C  0.42888604  0.25959065  0.62956020    -0.13600
C661        C  0.40430303  0.28800618  0.62992047     0.05000
C662        C  0.42644529  0.31563662  0.63758571    -0.09500
C663        C  0.47072532  0.31334762  0.64848952     0.05800
C664        C  0.49501676  0.28494602  0.64844006    -0.13900
Br665      Br  0.53235149  0.26339095  0.58951762    -0.06000
Br666      Br  0.52790601  0.14245919  0.66663343    -0.00300
Br667      Br  0.34096870  0.28904678  0.61917259     0.00100
Br668      Br  0.55669155  0.28283626  0.66172843    -0.04300
Br669      Br  0.59740288  0.20186363  0.57856548     0.00200
Br670      Br  0.46893272  0.20692765  0.67935749    -0.03600
Br671      Br  0.40026884  0.22280418  0.61630397    -0.04500
Br672      Br  0.49797711  0.34937221  0.66375613    -0.00500
C673        C  0.94193582  0.51619362  0.54974357     0.00900
C674        C  0.93631524  0.52774958  0.52575476     0.03800
C675        C  0.96326038  0.51603210  0.50682078    -0.12300
C676        C  0.99433924  0.49177764  0.51168526     0.23100
C677        C  0.99758231  0.47849714  0.53520420    -0.12900
C678        C  0.97161752  0.49086859  0.55439323     0.04500
C679        C  0.01814843  0.47729711  0.49116484     0.26900
C680        C  0.99539794  0.45324375  0.47881362    -0.13600
C681        C  0.01526023  0.44050547  0.45799540     0.05000
C682        C  0.05805598  0.45208495  0.44935368    -0.09500
C683        C  0.08088424  0.47625277  0.46177274     0.05800
C684        C  0.06099874  0.48873041  0.48291494    -0.13900
Br685      Br  0.03792995  0.44354699  0.54089864    -0.06000
Br686      Br  0.89145348  0.55965757  0.51889431    -0.00300
Br687      Br  0.98059912  0.40907171  0.44074222     0.00100
Br688      Br  0.09139063  0.52196219  0.50014010    -0.04300
Br689      Br  0.97964793  0.47434703  0.58705183     0.00200
Br690      Br  0.95786633  0.53317056  0.47416866    -0.03600
Br691      Br  0.93537967  0.43903880  0.48983950    -0.04500
Br692      Br  0.13899860  0.49217935  0.44979137    -0.00500
C693        C  0.31112011  0.37165175  0.55205968     0.00900
C694        C  0.30680822  0.34219078  0.54088053     0.03800
C695        C  0.28184803  0.33856787  0.51856301    -0.12300
C696        C  0.26364348  0.36461676  0.50594557     0.23100
C697        C  0.26947123  0.39422119  0.51658145    -0.12900
C698        C  0.29241057  0.39766871  0.53945315     0.04500
C699        C  0.23803387  0.36112474  0.48173893     0.26900
C700        C  0.26197505  0.35919887  0.45931615    -0.13600
C701        C  0.23774991  0.35827324  0.43658864     0.05000
C702        C  0.18881026  0.36041948  0.43565639    -0.09500
C703        C  0.16495623  0.35863020  0.45848871     0.05800
C704        C  0.18940377  0.35975960  0.48109692    -0.13900
Br705      Br  0.24605863  0.43028728  0.49949190    -0.06000
Br706      Br  0.33564464  0.30667329  0.55581305    -0.00300
Br707      Br  0.27197866  0.35068495  0.40700130     0.00100
Br708      Br  0.15618286  0.35986625  0.51167972    -0.04300
Br709      Br  0.30094383  0.43875257  0.55258105     0.00200
Br710      Br  0.27093368  0.29765864  0.50557930    -0.03600
Br711      Br  0.32848726  0.35829495  0.45985848    -0.04500
Br712      Br  0.09882203  0.35305182  0.46005075    -0.00500
C713        C  0.93161083  0.17198151  0.34843787     0.00900
C714        C  0.91341766  0.20001805  0.35754902     0.03800
C715        C  0.94042918  0.22755952  0.35744876    -0.12300
C716        C  0.98499810  0.22789562  0.34696840     0.23100
C717        C  0.00141334  0.20053576  0.33592488    -0.12900
C718        C  0.97531835  0.17268468  0.33704930     0.04500
C719        C  0.01505920  0.25656929  0.34825465     0.26900
C720        C  0.00800028  0.28178862  0.33200771    -0.13600
C721        C  0.03436986  0.30943555  0.33431201     0.05000
C722        C  0.06837338  0.31227998  0.35277742    -0.09500
C723        C  0.07718799  0.28639673  0.36813868     0.05800
C724        C  0.05052455  0.25885693  0.36602873    -0.13900
Br725      Br  0.06057685  0.20108329  0.31993869    -0.06000
Br726      Br  0.85242827  0.20037520  0.37152487    -0.00300
Br727      Br  0.02394010  0.34380372  0.31223716     0.00100
Br728      Br  0.06073080  0.22478804  0.38853300    -0.04300
Br729      Br  0.99965274  0.13506208  0.32321965     0.00200
Br730      Br  0.91768662  0.26432695  0.37330637    -0.03600
Br731      Br  0.96095838  0.27869440  0.30707862    -0.04500
Br732      Br  0.12404206  0.28926827  0.39320074    -0.00500
C733        C  0.05185434  0.98499346  0.54904147     0.00900
C734        C  0.01964168  0.00839659  0.55428730     0.03800
C735        C  0.99237963  0.02058066  0.53543030    -0.12300
C736        C  0.99952158  0.01060519  0.51131066     0.23100
C737        C  0.03533155  0.98991773  0.50570980    -0.12900
C738        C  0.06075785  0.97638691  0.52474109     0.04500
C739        C  0.96962580  0.02203532  0.49169559     0.26900
C740        C  0.93570231  0.00247321  0.48155552    -0.13600
C741        C  0.91200368  0.01191208  0.46038588     0.05000
C742        C  0.91885082  0.04223256  0.45104349    -0.09500
C743        C  0.94875029  0.06315904  0.46363022     0.05800
C744        C  0.97639072  0.05218554  0.48274539    -0.13900
Br745      Br  0.04808106  0.97935756  0.47209257    -0.06000
Br746      Br  0.00962948  0.02187681  0.58743530    -0.00300
Br747      Br  0.87100149  0.98296287  0.44438744     0.00100
Br748      Br  0.02597644  0.07766578  0.49576572    -0.04300
Br749      Br  0.10568231  0.94483099  0.51767344     0.00200
Br750      Br  0.94341821  0.04939394  0.54275213    -0.03600
Br751      Br  0.92293893  0.96255404  0.49645581    -0.04500
Br752      Br  0.95493264  0.10675747  0.45546969    -0.00500
C753        C  0.68052753  0.12561019  0.54398434     0.00900
C754        C  0.72770865  0.11789060  0.54139054     0.03800
C755        C  0.74974189  0.12053447  0.51823094    -0.12300
C756        C  0.72631910  0.13352346  0.49779832     0.23100
C757        C  0.68128753  0.14496741  0.50128317    -0.12900
C758        C  0.65784201  0.13972607  0.52362931     0.04500
C759        C  0.74759874  0.13356503  0.47246051     0.26900
C760        C  0.78415494  0.15388445  0.46629320    -0.13600
C761        C  0.80675258  0.15165885  0.44332238     0.05000
C762        C  0.79076146  0.13051381  0.42508007    -0.09500
C763        C  0.74949330  0.11362136  0.43028860     0.05800
C764        C  0.73019565  0.11365205  0.45411504    -0.13900
Br765      Br  0.65147862  0.16777390  0.47510769    -0.06000
Br766      Br  0.76206397  0.10257324  0.56916034    -0.00300
Br767      Br  0.85850925  0.17903012  0.43724389     0.00100
Br768      Br  0.68047837  0.08524010  0.46197274    -0.04300
Br769      Br  0.59366768  0.15144079  0.52559224     0.00200
Br770      Br  0.81129623  0.10456622  0.51407975    -0.03600
Br771      Br  0.80239847  0.18548491  0.48936018    -0.04500
Br772      Br  0.71631563  0.09140763  0.40506261    -0.00500
C773        C  0.29943364  0.62157312  0.93922228     0.00900
C774        C  0.28030088  0.59640455  0.95269377     0.03800
C775        C  0.25916275  0.60116070  0.97570333    -0.12300
C776        C  0.25737110  0.63107053  0.98609174     0.23100
C777        C  0.27648296  0.65630965  0.97271280    -0.12900
C778        C  0.29722982  0.65158887  0.94946325     0.04500
C779        C  0.23460956  0.63551942  0.01079385     0.26900
C780        C  0.18790632  0.64426287  0.01227939    -0.13600
C781        C  0.16466479  0.64486987  0.03514195     0.05000
C782        C  0.18747809  0.63576314  0.05732889    -0.09500
C783        C  0.23590469  0.62982012  0.05578661     0.05800
C784        C  0.25866344  0.62918850  0.03276212    -0.13900
Br785      Br  0.27419078  0.69741953  0.98632464    -0.06000
Br786      Br  0.28511635  0.55469995  0.94046961    -0.00300
Br787      Br  0.10138523  0.65897781  0.03472009     0.00100
Br788      Br  0.32322511  0.61853054  0.03099963    -0.04300
Br789      Br  0.32141289  0.68634782  0.93111785     0.00200
Br790      Br  0.23229356  0.56646610  0.99323187    -0.03600
Br791      Br  0.15524581  0.65416496  0.98232858    -0.04500
Br792      Br  0.27300151  0.62375669  0.08490001    -0.00500
C793        C  0.06367567  0.54752979  0.03327657     0.00900
C794        C  0.02605464  0.56279183  0.02162694     0.03800
C795        C  0.00348143  0.54865933  0.00182384    -0.12300
C796        C  0.01941641  0.52015658  0.99286686     0.23100
C797        C  0.06002245  0.50688156  0.00251941    -0.12900
C798        C  0.08209254  0.52052854  0.02278517     0.04500
C799        C  0.99136178  0.50353378  0.97440194     0.26900
C800        C  0.96014554  0.48020019  0.98195249    -0.13600
C801        C  0.93074741  0.46600323  0.96482425     0.05000
C802        C  0.93259789  0.47487448  0.94003535    -0.09500
C803        C  0.96323934  0.49882481  0.93256257     0.05800
C804        C  0.99269288  0.51296679  0.94973910    -0.13900
Br805      Br  0.08389462  0.46925011  0.98871373    -0.06000
Br806      Br  0.00017878  0.60081495  0.03416399    -0.00300
Br807      Br  0.88721759  0.43462277  0.97528843     0.00100
Br808      Br  0.03559317  0.54504738  0.93962289    -0.04300
Br809      Br  0.13771235  0.50254765  0.03609369     0.00200
Br810      Br  0.94777430  0.56679139  0.98835010    -0.03600
Br811      Br  0.95801256  0.46730849  0.01573003    -0.04500
Br812      Br  0.96721365  0.51183525  0.89881792    -0.00500
C813        C  0.12011794  0.44660379  0.29890056     0.00900
C814        C  0.08046346  0.46365796  0.29188254     0.03800
C815        C  0.08103385  0.48347939  0.27118778    -0.12300
C816        C  0.11945567  0.48416476  0.25542423     0.23100
C817        C  0.15785888  0.46518128  0.26121791    -0.12900
C818        C  0.15876254  0.44727410  0.28318316     0.04500
C819        C  0.11760767  0.50303022  0.23200629     0.26900
C820        C  0.08953377  0.49298274  0.21246363    -0.13600
C821        C  0.08644133  0.51049803  0.19053966     0.05000
C822        C  0.11340481  0.53798200  0.18703184    -0.09500
C823        C  0.14172717  0.54797295  0.20680196     0.05800
C824        C  0.14265062  0.53110826  0.22928023    -0.13900
Br825      Br  0.20943454  0.46401406  0.23907566    -0.06000
Br826      Br  0.02379090  0.45856482  0.30981035    -0.00300
Br827      Br  0.04390327  0.49589299  0.16574583     0.00100
Br828      Br  0.17820888  0.54646562  0.25661583    -0.04300
Br829      Br  0.21377453  0.42496937  0.29228092     0.00200
Br830      Br  0.02953169  0.51080143  0.26496246    -0.03600
Br831      Br  0.05560517  0.45434514  0.21565284    -0.04500
Br832      Br  0.18312153  0.58285022  0.20277239    -0.00500
C833        C  0.87448988  0.94954580  0.18405116     0.00900
C834        C  0.90659553  0.97394866  0.18862275     0.03800
C835        C  0.90390718  0.99190915  0.21006039    -0.12300
C836        C  0.87229905  0.98409828  0.22858993     0.23100
C837        C  0.84247215  0.95839385  0.22507696    -0.12900
C838        C  0.84261138  0.94173793  0.20270197     0.04500
C839        C  0.87270252  0.00204772  0.25215634     0.26900
C840        C  0.90624212  0.99544054  0.27015828    -0.13600
C841        C  0.90826552  0.01274489  0.29203223     0.05000
C842        C  0.87567497  0.03652459  0.29677238    -0.09500
C843        C  0.84347761  0.04417013  0.27804875     0.05800
C844        C  0.84209781  0.02699884  0.25594193    -0.13900
Br845      Br  0.80075555  0.94656070  0.25090166    -0.06000
Br846      Br  0.95650337  0.98248051  0.16624191    -0.00300
Br847      Br  0.95821923  0.00465937  0.31466483     0.00100
Br848      Br  0.79813567  0.03744828  0.23061345    -0.04300
Br849      Br  0.79705918  0.90972465  0.19725979     0.00200
Br850      Br  0.94254834  0.02831445  0.21372874    -0.03600
Br851      Br  0.94960717  0.96224072  0.26469169    -0.04500
Br852      Br  0.80007663  0.07748251  0.28251711    -0.00500
C853        C  0.93061209  0.81844316  0.12702300     0.00900
C854        C  0.94861029  0.79925074  0.10837890     0.03800
C855        C  0.97464957  0.77266011  0.11424224    -0.12300
C856        C  0.98429672  0.76494264  0.13880337     0.23100
C857        C  0.96683633  0.78403138  0.15756722    -0.12900
C858        C  0.94000583  0.81064669  0.15170450     0.04500
C859        C  0.00949851  0.73520877  0.14412738     0.26900
C860        C  0.98401635  0.70751328  0.14629171    -0.13600
C861        C  0.00598827  0.67845199  0.14426471     0.05000
C862        C  0.05431860  0.67640258  0.13989462    -0.09500
C863        C  0.08048135  0.70442387  0.14022628     0.05800
C864        C  0.05802883  0.73357468  0.14228020    -0.13900
Br865      Br  0.98042989  0.77380876  0.19118370    -0.06000
Br866      Br  0.93823933  0.80898362  0.07430285    -0.00300
Br867      Br  0.96788615  0.64178543  0.14655720     0.00100
Br868      Br  0.09305974  0.77174975  0.14069550    -0.04300
Br869      Br  0.91851019  0.83746265  0.17730398     0.00200
Br870      Br  0.99703609  0.74623645  0.08838868    -0.03600
Br871      Br  0.91772759  0.70975899  0.14983567    -0.04500
Br872      Br  0.14642351  0.70390362  0.13547679    -0.00500
C873        C  0.91914587  0.96010403  0.03234077     0.00900
C874        C  0.90199357  0.98852778  0.02323397     0.03800
C875        C  0.92473167  0.00351046  0.00385703    -0.12300
C876        C  0.96486976  0.99029249  0.99419387     0.23100
C877        C  0.98200149  0.96200880  0.00303102    -0.12900
C878        C  0.95890218  0.94653832  0.02179941     0.04500
C879        C  0.98942117  0.00506163  0.97407488     0.26900
C880        C  0.98191106  0.99378323  0.95032825    -0.13600
C881        C  0.01177978  0.00265217  0.93157884     0.05000
C882        C  0.04677766  0.02457312  0.93637180    -0.09500
C883        C  0.05438983  0.03571829  0.96013397     0.05800
C884        C  0.02595837  0.02564961  0.97918820    -0.13900
Br885      Br  0.03861490  0.94514304  0.98973238    -0.06000
Br886      Br  0.84754541  0.00684937  0.03718545    -0.00300
Br887      Br  0.00325154  0.98561321  0.89930159     0.00100
Br888      Br  0.03664078  0.04002933  0.01211025    -0.04300
Br889      Br  0.98556092  0.90804989  0.03329469     0.00200
Br890      Br  0.90192946  0.04221858  0.99073186    -0.03600
Br891      Br  0.93024528  0.96652359  0.94366152    -0.04500
Br892      Br  0.10331314  0.06521273  0.96608797    -0.00500
C893        C  0.67708144  0.86452268  0.93076957     0.00900
C894        C  0.65738465  0.84676311  0.95036879     0.03800
C895        C  0.67747025  0.84685534  0.97418733    -0.12300
C896        C  0.71895793  0.86300963  0.97891562     0.23100
C897        C  0.73987170  0.87951590  0.95953391    -0.12900
C898        C  0.71904204  0.88081851  0.93598322     0.04500
C899        C  0.74035176  0.86361660  0.00427973     0.26900
C900        C  0.73757169  0.89064341  0.01862913    -0.13600
C901        C  0.76404410  0.89356292  0.04033029     0.05000
C902        C  0.78915351  0.86809044  0.05012948    -0.09500
C903        C  0.79035071  0.84044708  0.03614896     0.05800
C904        C  0.76701113  0.83851141  0.01322108    -0.13900
Br905      Br  0.79715451  0.90151954  0.96576599    -0.06000
Br906      Br  0.60306110  0.82123929  0.94545855    -0.00300
Br907      Br  0.77279562  0.93450636  0.05334524     0.00100
Br908      Br  0.77263530  0.80176327  0.99346924    -0.04300
Br909      Br  0.74837860  0.90721550  0.91212301     0.00200
Br910      Br  0.64689583  0.82606778  0.00105532    -0.03600
Br911      Br  0.69790611  0.92421480  0.00816156    -0.04500
Br912      Br  0.82472631  0.80522227  0.04789180    -0.00500
C913        C  0.67754401  0.36267898  0.05246811     0.00900
C914        C  0.66783109  0.33704767  0.03722288     0.03800
C915        C  0.69025933  0.33388458  0.01433644    -0.12300
C916        C  0.72183391  0.35672782  0.00611779     0.23100
C917        C  0.73251562  0.38184129  0.02157620    -0.12900
C918        C  0.71066768  0.38478737  0.04450041     0.04500
C919        C  0.74296495  0.35536580  0.98103470     0.26900
C920        C  0.78710615  0.34243206  0.97776822    -0.13600
C921        C  0.80980189  0.34517193  0.95499457     0.05000
C922        C  0.78935932  0.36175556  0.93527778    -0.09500
C923        C  0.74387343  0.37296279  0.93811610     0.05800
C924        C  0.72092000  0.36978988  0.96085935    -0.13900
Br925      Br  0.77616071  0.41304842  0.01074676    -0.06000
Br926      Br  0.62298573  0.30660770  0.04753566    -0.00300
Br927      Br  0.86961305  0.32632161  0.95091492     0.00100
Br928      Br  0.66037559  0.38736135  0.96508027    -0.04300
Br929      Br  0.72398077  0.42088543  0.06375529     0.00200
Br930      Br  0.67751441  0.29851213  0.99395343    -0.03600
Br931      Br  0.81787675  0.32291975  0.00516990    -0.04500
Br932      Br  0.71388680  0.39490194  0.91171101    -0.00500
C933        C  0.55641062  0.47067165  0.05053798     0.00900
C934        C  0.56572063  0.45955338  0.02694547     0.03800
C935        C  0.53856407  0.46921173  0.00707528    -0.12300
C936        C  0.50192640  0.48993687  0.01088203     0.23100
C937        C  0.49406249  0.50240451  0.03422268    -0.12900
C938        C  0.52150688  0.49288030  0.05406653     0.04500
C939        C  0.47650661  0.50213778  0.98962437     0.26900
C940        C  0.49275157  0.52955306  0.97871049    -0.13600
C941        C  0.47249716  0.54035747  0.95709510     0.05000
C942        C  0.43384172  0.52466512  0.94692643    -0.09500
C943        C  0.41767788  0.49693357  0.95786823     0.05800
C944        C  0.43913907  0.48564842  0.97930951    -0.13900
Br945      Br  0.44575124  0.53253311  0.03880783    -0.06000
Br946      Br  0.61488424  0.43029618  0.02215353    -0.00300
Br947      Br  0.50222713  0.57488381  0.94080227     0.00100
Br948      Br  0.41771314  0.44781396  0.99467889    -0.04300
Br949      Br  0.50939370  0.50904066  0.08619902     0.00200
Br950      Br  0.55127677  0.45408298  0.97461601    -0.03600
Br951      Br  0.54385025  0.55203389  0.99338758    -0.04500
Br952      Br  0.36643387  0.47450900  0.94370424    -0.00500
C953        C  0.74179649  0.46211107  0.11893358     0.00900
C954        C  0.78396487  0.44815428  0.12660157     0.03800
C955        C  0.82518935  0.46575574  0.12715751    -0.12300
C956        C  0.82529751  0.49713957  0.11980322     0.23100
C957        C  0.78414574  0.51093745  0.11158110    -0.12900
C958        C  0.74281871  0.49353549  0.11069769     0.04500
C959        C  0.86986268  0.51427040  0.11743760     0.26900
C960        C  0.88889515  0.53101212  0.13719619    -0.13600
C961        C  0.93260908  0.54548310  0.13486426     0.05000
C962        C  0.95623193  0.54477491  0.11230156    -0.09500
C963        C  0.93703840  0.52760106  0.09284351     0.05800
C964        C  0.89436197  0.51234636  0.09537243    -0.13900
Br965      Br  0.78521791  0.55376108  0.10076379    -0.06000
Br966      Br  0.78736111  0.40485469  0.13608166    -0.00300
Br967      Br  0.96137765  0.56408842  0.16304918     0.00100
Br968      Br  0.87043807  0.48706926  0.06902966    -0.04300
Br969      Br  0.68948417  0.51258711  0.09551104     0.00200
Br970      Br  0.88256168  0.44683063  0.13740813    -0.03600
Br971      Br  0.85550322  0.53314938  0.16756357    -0.04500
Br972      Br  0.97155361  0.52144718  0.06360235    -0.00500
C973        C  0.44970151  0.43930859  0.12160290     0.00900
C974        C  0.44113719  0.46863320  0.13257129     0.03800
C975        C  0.39883685  0.48388158  0.12877609    -0.12300
C976        C  0.36241252  0.46881010  0.11654917     0.23100
C977        C  0.36841142  0.43817593  0.10831549    -0.12900
C978        C  0.41205848  0.42365766  0.11016398     0.04500
C979        C  0.31692978  0.48470555  0.11426347     0.26900
C980        C  0.28770632  0.48589355  0.13471325    -0.13600
C981        C  0.24744586  0.50398675  0.13392785     0.05000
C982        C  0.23588538  0.52119167  0.11266323    -0.09500
C983        C  0.26384146  0.51869926  0.09171746     0.05800
C984        C  0.30425417  0.50045351  0.09251266    -0.13900
Br985      Br  0.31625418  0.41635517  0.09445660    -0.06000
Br986      Br  0.48565012  0.48818944  0.15413863    -0.00300
Br987      Br  0.20758706  0.50376068  0.16193412     0.00100
Br988      Br  0.34239327  0.49705840  0.06392225    -0.04300
Br989      Br  0.41879654  0.38279020  0.09633070     0.00200
Br990      Br  0.39085630  0.52610748  0.13986704    -0.03600
Br991      Br  0.30320745  0.46257549  0.16393804    -0.04500
Br992      Br  0.24758344  0.54111632  0.06227300    -0.00500
C993        C  0.53403703  0.06082768  0.11636102     0.00900
C994        C  0.56259130  0.06143908  0.09546192     0.03800
C995        C  0.60484501  0.04525649  0.09551992    -0.12300
C996        C  0.61901185  0.02844308  0.11645851     0.23100
C997        C  0.59156924  0.02898271  0.13769711    -0.12900
C998        C  0.54933802  0.04516287  0.13765418     0.04500
C999        C  0.66202378  0.00946386  0.11581130     0.26900
C1000       C  0.65982939  0.97763704  0.10996211    -0.13600
C1001       C  0.70048437  0.95974301  0.10896632     0.05000
C1002       C  0.74408812  0.97384746  0.11301838    -0.09500
C1003       C  0.74600199  0.00574822  0.11920124     0.05800
C1004       C  0.70510721  0.02327418  0.12087900    -0.13900
Br1005     Br  0.61064802  0.00591341  0.16634658    -0.06000
Br1006     Br  0.54205419  0.08181716  0.06583926    -0.00300
Br1007     Br  0.69560920  0.91601301  0.10167022     0.00100
Br1008     Br  0.70755799  0.06616412  0.13088235    -0.04300
Br1009     Br  0.51115305  0.04490020  0.16650683     0.00200
Br1010     Br  0.64199443  0.04415383  0.06630850    -0.03600
Br1011     Br  0.60071410  0.95858687  0.10339039    -0.04500
Br1012     Br  0.80418761  0.02541739  0.12704863    -0.00500
C1013       C  0.24851214  0.01789898  0.11377769     0.00900
C1014       C  0.21352842  0.02286311  0.13122796     0.03800
C1015       C  0.17189224  0.00605298  0.12991989    -0.12300
C1016       C  0.16439507  0.98480586  0.11082211     0.23100
C1017       C  0.19953304  0.97934765  0.09363454    -0.12900
C1018       C  0.24198160  0.99534561  0.09543479     0.04500
C1019       C  0.11765179  0.97120995  0.10738520     0.26900
C1020       C  0.10552338  0.94247297  0.11819548    -0.13600
C1021       C  0.05985276  0.93118558  0.11620603     0.05000
C1022       C  0.02606546  0.94913742  0.10411624    -0.09500
C1023       C  0.03864096  0.97751558  0.09285575     0.05800
C1024       C  0.08431549  0.98839093  0.09435679    -0.13900
Br1025     Br  0.18812758  0.95143509  0.06679028    -0.06000
Br1026     Br  0.22248165  0.05246582  0.15723949    -0.00300
Br1027     Br  0.04319489  0.89155722  0.13037294     0.00100
Br1028     Br  0.10135427  0.02733547  0.07898787    -0.04300
Br1029     Br  0.29000303  0.98758373  0.07193932     0.00200
Br1030     Br  0.12398238  0.01293127  0.15372573    -0.03600
Br1031     Br  0.15116283  0.91930106  0.13634959    -0.04500
Br1032     Br  0.99373850  0.00153080  0.07488112    -0.00500
C1033       C  0.40852397  0.17808645  0.13735159     0.00900
C1034       C  0.39990320  0.20542602  0.12382442     0.03800
C1035       C  0.42811305  0.23188193  0.12690174    -0.12300
C1036       C  0.46310100  0.23208886  0.14498366     0.23100
C1037       C  0.46691986  0.20635482  0.16106658    -0.12900
C1038       C  0.44061740  0.17905890  0.15683438     0.04500
C1039       C  0.49730127  0.25840155  0.14562509     0.26900
C1040       C  0.54049043  0.25534041  0.13395104    -0.13600
C1041       C  0.56889611  0.28169927  0.12996409     0.05000
C1042       C  0.55467216  0.31127053  0.13782012    -0.12700
C1043       C  0.51338712  0.31382814  0.15125738     0.05800
C1044       C  0.48493041  0.28753179  0.15524223    -0.13900
Br1045     Br  0.50900194  0.20842558  0.18838620    -0.06000
Br1046     Br  0.34875250  0.20637148  0.10119659    -0.00300
Br1047     Br  0.62622732  0.27772016  0.11257415     0.00100
Br1048     Br  0.42778549  0.29156786  0.17284644    -0.04300
Br1049     Br  0.45063560  0.14239156  0.17654300     0.00200
Br1050     Br  0.42073927  0.26699920  0.10511221    -0.03600
Br1051     Br  0.55951796  0.21522826  0.12219240    -0.04500
Br1052     Br  0.49457502  0.35391925  0.16296066    -0.00500
C1053       C  0.17836620  0.13417763  0.93312462     0.00900
C1054       C  0.22397968  0.12280607  0.93607963     0.03800
C1055       C  0.24706457  0.12460987  0.95905054    -0.12300
C1056       C  0.22601358  0.13887910  0.97935709     0.23100
C1057       C  0.18233947  0.15277393  0.97584637    -0.12900
C1058       C  0.15859500  0.15020246  0.95311238     0.04500
C1059       C  0.24818031  0.13700193  0.00460476     0.26900
C1060       C  0.23339212  0.11420376  0.02158038    -0.13600
C1061       C  0.25568905  0.11050071  0.04458300     0.05000
C1062       C  0.29463065  0.12879953  0.05097377    -0.09500
C1063       C  0.30944075  0.15173361  0.03388371     0.05800
C1064       C  0.28568281  0.15635039  0.01129276    -0.13900
Br1065     Br  0.15460717  0.17483559  0.00257761    -0.06000
Br1066     Br  0.25500822  0.10322820  0.90929244    -0.00300
Br1067     Br  0.23465588  0.07803495  0.06612327     0.00100
Br1068     Br  0.30511603  0.18882544  0.98909372    -0.04300
Br1069     Br  0.09875852  0.16922359  0.94929416     0.00200
Br1070     Br  0.30687333  0.10567690  0.96323241    -0.03600
Br1071     Br  0.18420582  0.08625704  0.01251432    -0.04500
Br1072     Br  0.36363773  0.17629105  0.04086467    -0.00500
C1073       C  0.56289991  0.95490510  0.95190236     0.00900
C1074       C  0.58394378  0.98153317  0.96192564     0.03800
C1075       C  0.56234404  0.99730103  0.98116823    -0.12300
C1076       C  0.51937282  0.98670737  0.98982783     0.23100
C1077       C  0.49971752  0.95916252  0.98089183    -0.12900
C1078       C  0.52218786  0.94256900  0.96262139     0.04500
C1079       C  0.49516991  0.00283769  0.00950883     0.26900
C1080       C  0.49891529  0.99097802  0.03342126    -0.13600
C1081       C  0.46923473  0.00161534  0.05162369     0.05000
C1082       C  0.43669788  0.02494558  0.04600800    -0.09500
C1083       C  0.43325729  0.03700224  0.02207734     0.05800
C1084       C  0.46264829  0.02600687  0.00380169    -0.13900
Br1085     Br  0.44038704  0.94505367  0.99304616    -0.06000
Br1086     Br  0.64295795  0.99547555  0.94982204    -0.00300
Br1087     Br  0.47514027  0.98472908  0.08425418     0.00100
Br1088     Br  0.45891050  0.04295687  0.97115785    -0.04300
Br1089     Br  0.49398638  0.90420573  0.95188215     0.00200
Br1090     Br  0.59078652  0.03345067  0.99550393    -0.03600
Br1091     Br  0.54513311  0.96009152  0.04095946    -0.04500
Br1092     Br  0.38780156  0.06837230  0.01447524    -0.00500
C1093       C  0.69337770  0.62753373  0.43313132     0.00900
C1094       C  0.68154634  0.65238942  0.44873605     0.03800
C1095       C  0.70542710  0.65711130  0.47117380    -0.12300
C1096       C  0.73900690  0.63562445  0.47932704     0.23100
C1097       C  0.75119764  0.61107018  0.46363979    -0.12900
C1098       C  0.72952872  0.60757888  0.44056826     0.04500
C1099       C  0.76139592  0.63794743  0.50430376     0.26900
C1100       C  0.80813149  0.64680924  0.50646763    -0.13600
C1101       C  0.83242759  0.64218392  0.52871719     0.05000
C1102       C  0.80990034  0.62956531  0.54963383    -0.09500
C1103       C  0.76136391  0.62537296  0.54838788     0.05800
C1104       C  0.73765693  0.62849129  0.52568804    -0.13900
Br1105     Br  0.79623570  0.58091101  0.47438089    -0.06000
Br1106     Br  0.63139120  0.67948606  0.43978993    -0.00300
Br1107     Br  0.89665820  0.65433296  0.53033934     0.00100
Br1108     Br  0.67287095  0.61828109  0.52362230    -0.04300
Br1109     Br  0.74771591  0.57370558  0.42017409     0.00200
Br1110     Br  0.69242782  0.69312898  0.49071092    -0.03600
Br1111     Br  0.83901709  0.66480154  0.47848828    -0.04500
Br1112     Br  0.72664009  0.61528012  0.57741632    -0.00500
C1113       C  0.56108551  0.52689444  0.44539882     0.00900
C1114       C  0.52620681  0.50411200  0.44442741     0.03800
C1115       C  0.50518737  0.49425614  0.46605116    -0.12300
C1116       C  0.51936511  0.50716262  0.48843407     0.23100
C1117       C  0.55515950  0.52922447  0.48952656    -0.12900
C1118       C  0.57612410  0.53916037  0.46785141     0.04500
C1119       C  0.49928728  0.49499916  0.51091085     0.26900
C1120       C  0.46019394  0.50909100  0.52106547    -0.13600
C1121       C  0.43782817  0.49477522  0.54084458     0.05000
C1122       C  0.45456865  0.46631575  0.55001086    -0.09500
C1123       C  0.49487815  0.45290566  0.54016573     0.05800
C1124       C  0.51721255  0.46738821  0.52063573    -0.13900
Br1125     Br  0.57480409  0.54585336  0.52059734    -0.06000
Br1126     Br  0.50524237  0.48763614  0.41352129    -0.00300
Br1127     Br  0.38331581  0.51336332  0.55454247     0.00100
Br1128     Br  0.57185719  0.44909822  0.50647892    -0.04300
Br1129     Br  0.62505173  0.56962689  0.46877814     0.00200
Br1130     Br  0.45661410  0.46332622  0.46517027    -0.03600
Br1131     Br  0.43693027  0.54735923  0.50732115    -0.04500
Br1132     Br  0.52156542  0.41534869  0.55330883    -0.00500
C1133       C  0.95833044  0.44461851  0.37402663     0.00900
C1134       C  0.94751030  0.47388552  0.38409063     0.03800
C1135       C  0.90214714  0.48520567  0.38301975    -0.12300
C1136       C  0.86678768  0.46719517  0.37243872     0.23100
C1137       C  0.87697440  0.43755743  0.36305766    -0.12900
C1138       C  0.92274722  0.42633000  0.36375772     0.04500
C1139       C  0.81963173  0.48059794  0.37057395     0.26900
C1140       C  0.78820055  0.47715033  0.39004144    -0.13600
C1141       C  0.74725934  0.49478805  0.39036179     0.05000
C1142       C  0.73782103  0.51610987  0.37124128    -0.09500
C1143       C  0.76780020  0.51782404  0.35096036     0.05800
C1144       C  0.80866237  0.50026858  0.35071522    -0.13900
Br1145     Br  0.82814290  0.41262269  0.34922496    -0.06000
Br1146     Br  0.99380465  0.49830502  0.40071953    -0.00300
Br1147     Br  0.70531676  0.49068960  0.41753946     0.00100
Br1148     Br  0.85063795  0.50369076  0.32348043    -0.04300
Br1149     Br  0.93700562  0.38647723  0.34994502     0.00200
Br1150     Br  0.88813510  0.52577079  0.39599710    -0.03600
Br1151     Br  0.80225910  0.44888129  0.41654454    -0.04500
Br1152     Br  0.75213190  0.54317382  0.32290367    -0.00500
C1153       C  0.45247097  0.55815544  0.36971251     0.00900
C1154       C  0.43942313  0.53577913  0.35211972     0.03800
C1155       C  0.39581849  0.52126847  0.35329667    -0.12300
C1156       C  0.36425597  0.52956243  0.37162908     0.23100
C1157       C  0.37537804  0.55398854  0.38772456    -0.12900
C1158       C  0.41923623  0.56844341  0.38669117     0.04500
C1159       C  0.32004094  0.51190770  0.37415486     0.26900
C1160       C  0.28109192  0.52036914  0.36013897    -0.13600
C1161       C  0.24092879  0.50170823  0.36058274     0.05000
C1162       C  0.23902082  0.47483958  0.37555261    -0.09500
C1163       C  0.27707422  0.46741686  0.39057814     0.05800
C1164       C  0.31774464  0.48551675  0.38956781    -0.13900
Br1165     Br  0.33114940  0.56642066  0.41199216    -0.06000
Br1166     Br  0.48116571  0.52515609  0.32606633    -0.00300
Br1167     Br  0.18912256  0.51258253  0.34003250     0.00100
Br1168     Br  0.37080704  0.47383986  0.40890806    -0.04300
Br1169     Br  0.43410745  0.60099439  0.40954925     0.00200
Br1170     Br  0.37998896  0.48874593  0.33054820    -0.03600
Br1171     Br  0.28333089  0.55741043  0.34011104    -0.04500
Br1172     Br  0.27271407  0.43322141  0.41326167    -0.00500
C1173       C  0.62336934  0.43765090  0.19364166     0.00900
C1174       C  0.58308429  0.44528842  0.20670897     0.03800
C1175       C  0.58546746  0.46529449  0.22697372    -0.12300
C1176       C  0.62842496  0.47679722  0.23514853     0.23100
C1177       C  0.66914631  0.46713843  0.22348585    -0.12900
C1178       C  0.66669160  0.44779784  0.20272851     0.04500
C1179       C  0.63060127  0.49615404  0.25767998     0.26900
C1180       C  0.62821049  0.52889591  0.25653936    -0.13600
C1181       C  0.62507926  0.54654226  0.27827755     0.05000
C1182       C  0.62438226  0.53148785  0.30131106    -0.09500
C1183       C  0.62838810  0.49847252  0.30216141     0.05800
C1184       C  0.63194376  0.48118147  0.28052293    -0.13900
Br1185     Br  0.72819979  0.48107700  0.23580390    -0.06000
Br1186     Br  0.52454599  0.42752797  0.19716440    -0.00300
Br1187     Br  0.61821485  0.59097625  0.27636992     0.00100
Br1188     Br  0.63845075  0.43640919  0.28190613    -0.04300
Br1189     Br  0.72287161  0.43690910  0.18627999     0.00200
Br1190     Br  0.52965601  0.47762566  0.24334708    -0.03600
Br1191     Br  0.62880006  0.54927045  0.22505801    -0.04500
Br1192     Br  0.62963138  0.47539609  0.33256283    -0.00500
C1193       C  0.52799747  0.94301066  0.38128607     0.00900
C1194       C  0.53561461  0.97507068  0.38558893     0.03800
C1195       C  0.58044718  0.98763331  0.38463137    -0.12300
C1196       C  0.61840705  0.96831919  0.38003109     0.23100
C1197       C  0.61130471  0.93619294  0.37643660    -0.12900
C1198       C  0.56616790  0.92357286  0.37691052     0.04500
C1199       C  0.66522013  0.98252272  0.37786918     0.26900
C1200       C  0.68252431  0.99052032  0.35460446    -0.13600
C1201       C  0.72461492  0.00679478  0.35244146     0.05000
C1202       C  0.74906651  0.01619981  0.37359898    -0.09500
C1203       C  0.73217695  0.00747614  0.39693852     0.05800
C1204       C  0.69044016  0.99070146  0.39901780    -0.13900
Br1205     Br  0.66352565  0.90976670  0.37037352    -0.06000
Br1206     Br  0.48534011  0.00228222  0.39385205    -0.00300
Br1207     Br  0.74974535  0.01437157  0.32032541     0.00100
Br1208     Br  0.66655627  0.98000416  0.43092358    -0.04300
Br1209     Br  0.55649150  0.88009674  0.37015520     0.00200
Br1210     Br  0.59006132  0.03175318  0.38904961    -0.03600
Br1211     Br  0.64733411  0.98014932  0.32566841    -0.04500
Br1212     Br  0.76444720  0.01982678  0.42634761    -0.00500
C1213       C  0.24819766  0.96690899  0.37792450     0.00900
C1214       C  0.22972833  0.97174922  0.40150446     0.03800
C1215       C  0.18843074  0.98862336  0.40426860    -0.12300
C1216       C  0.16506717  0.00034985  0.38349663     0.23100
C1217       C  0.18425002  0.99631200  0.36010086    -0.12900
C1218       C  0.22627802  0.98048096  0.35742238     0.04500
C1219       C  0.11837522  0.01440701  0.38566005     0.26900
C1220       C  0.07938457  0.99493195  0.38496051    -0.13600
C1221       C  0.03480988  0.00771755  0.38386120     0.05000
C1222       C  0.02863490  0.04044257  0.38283654    -0.09500
C1223       C  0.06794258  0.05994471  0.38516300     0.05800
C1224       C  0.11261844  0.04688514  0.38649671    -0.13900
Br1225     Br  0.15190285  0.01168820  0.33155890    -0.06000
Br1226     Br  0.26009787  0.95460124  0.43004538    -0.00300
Br1227     Br  0.98294209  0.97948800  0.38567323     0.00100
Br1228     Br  0.16636363  0.07326435  0.38921072    -0.04300
Br1229     Br  0.25567911  0.98000759  0.32594364     0.00200
Br1230     Br  0.16311480  0.99512513  0.43639355    -0.03600
Br1231     Br  0.08757452  0.95034837  0.38523239    -0.04500
Br1232     Br  0.06144899  0.10454154  0.38590340    -0.00500
C1233       C  0.37062458  0.94691405  0.29966270     0.00900
C1234       C  0.40700794  0.96731584  0.29296707     0.03800
C1235       C  0.40372107  0.98594810  0.27163759    -0.12300
C1236       C  0.36359435  0.98510127  0.25695649     0.23100
C1237       C  0.32788337  0.96403064  0.26313827    -0.12900
C1238       C  0.33203543  0.94430228  0.28387604     0.04500
C1239       C  0.36194190  0.00292250  0.23321270     0.26900
C1240       C  0.34719174  0.03416411  0.23188009    -0.13600
C1241       C  0.34777238  0.05072223  0.20924561     0.05000
C1242       C  0.36208258  0.03587356  0.18748526    -0.09500
C1243       C  0.37419023  0.00374516  0.18901724     0.05800
C1244       C  0.37580637  0.98806112  0.21171287    -0.13900
Br1245     Br  0.27269081  0.96282880  0.24332458    -0.06000
Br1246     Br  0.46281893  0.96864242  0.31234995    -0.00300
Br1247     Br  0.33012694  0.09383331  0.20851694     0.00100
Br1248     Br  0.39799605  0.94571949  0.21362972    -0.04300
Br1249     Br  0.28443318  0.91398712  0.29063173     0.00200
Br1250     Br  0.45459373  0.01245193  0.26216990    -0.03600
Br1251     Br  0.32656275  0.05412771  0.26130277    -0.04500
Br1252     Br  0.38492208  0.97882179  0.16029984    -0.00500
C1253       C  0.42889793  0.81163218  0.35314969     0.00900
C1254       C  0.42186088  0.78497567  0.36795634     0.03800
C1255       C  0.45108954  0.75886322  0.36597683    -0.12300
C1256       C  0.48700076  0.75855368  0.34859168     0.23100
C1257       C  0.49303520  0.78470423  0.33314418    -0.12900
C1258       C  0.46418899  0.81103364  0.33544033     0.04500
C1259       C  0.51880312  0.73103100  0.34717276     0.26900
C1260       C  0.56190638  0.73136662  0.35939759    -0.13600
C1261       C  0.58946537  0.70432895  0.36029419     0.05000
C1262       C  0.57381172  0.67639319  0.34966290    -0.09500
C1263       C  0.53209315  0.67650093  0.33629750     0.05800
C1264       C  0.50474879  0.70364299  0.33501675    -0.13900
Br1265     Br  0.54274074  0.78509191  0.30984880    -0.06000
Br1266     Br  0.37337239  0.78465088  0.39189886    -0.00300
Br1267     Br  0.64815665  0.70485590  0.37704110     0.00100
Br1268     Br  0.44616882  0.70263181  0.31822127    -0.04300
Br1269     Br  0.47327870  0.84684877  0.31466483     0.00200
Br1270     Br  0.44442211  0.72434470  0.38849097    -0.03600
Br1271     Br  0.58129664  0.76804180  0.37682574    -0.04500
Br1272     Br  0.51087823  0.63845634  0.32146234    -0.00500
C1273       C  0.28903625  0.85838998  0.43010092     0.00900
C1274       C  0.24387251  0.87140850  0.43165522     0.03800
C1275       C  0.22188179  0.87488382  0.45460184    -0.12300
C1276       C  0.24279688  0.86386750  0.47627122     0.23100
C1277       C  0.28549323  0.84858657  0.47476188    -0.12900
C1278       C  0.30802577  0.84517846  0.45196515     0.04500
C1279       C  0.21923772  0.86767458  0.50057076     0.26900
C1280       C  0.22896196  0.89367116  0.51531979    -0.13600
C1281       C  0.20559604  0.89783927  0.53774110     0.05000
C1282       C  0.17269030  0.87577314  0.54606773    -0.09500
C1283       C  0.16217265  0.85021673  0.53090882     0.05800
C1284       C  0.18573319  0.84596190  0.50851936    -0.13900
Br1285     Br  0.31376750  0.83314894  0.50451202    -0.06000
Br1286     Br  0.20929330  0.88361323  0.40278974    -0.00300
Br1287     Br  0.21530586  0.93578991  0.55540665     0.00100
Br1288     Br  0.17121954  0.81083437  0.48814727    -0.04300
Br1289     Br  0.36312799  0.82017691  0.45148605     0.00200
Br1290     Br  0.16347000  0.89620923  0.45677733    -0.03600
Br1291     Br  0.27299868  0.92439433  0.50410444    -0.04500
Br1292     Br  0.11315214  0.82213012  0.54000436    -0.00500
C1293       C  0.41426474  0.94536357  0.45325220     0.00900
C1294       C  0.44189335  0.92561921  0.46818712     0.03800
C1295       C  0.46825018  0.93841045  0.48700981    -0.12300
C1296       C  0.46384175  0.96998983  0.49237313     0.23100
C1297       C  0.43158787  0.98869128  0.48001322    -0.12900
C1298       C  0.40720598  0.97652720  0.46007656     0.04500
C1299       C  0.49363480  0.98329173  0.51109905     0.26900
C1300       C  0.48357853  0.97749880  0.53579831    -0.13600
C1301       C  0.51310853  0.98903562  0.55378964     0.05000
C1302       C  0.54974574  0.00890797  0.54699015    -0.09500
C1303       C  0.56112668  0.01342918  0.52229756     0.05800
C1304       C  0.53356177  0.99986074  0.50419212    -0.13900
Br1305     Br  0.42231256  0.03111094  0.48997824    -0.06000
Br1306     Br  0.44698352  0.88133311  0.46330544    -0.00300
Br1307     Br  0.50173144  0.97818389  0.58752712     0.00100
Br1308     Br  0.54955316  0.00448441  0.47009433    -0.04300
Br1309     Br  0.36417953  0.00255096  0.44243282     0.00200
Br1310     Br  0.51293880  0.91322383  0.50458543    -0.03600
Br1311     Br  0.42824073  0.95494751  0.54486323    -0.04500
Br1312     Br  0.61398666  0.03850952  0.51364919    -0.00500
loop_ 
_geom_bond_atom_site_label_1 
_geom_bond_atom_site_label_2 
_geom_bond_distance 
_geom_bond_site_symmetry_2 
_ccdc_geom_bond_type 
O1           C16   1.266       .  A
O1           Al9   1.917       .  S
C2           O12   1.264       .  A
C2            O3   1.262       .  A
C2         C1273   1.525       .  S
O3           Al5   1.917       .  S
O4            C6   1.271       .  A
O4           Al5   1.954       .  S
Al5          O13   1.994       .  S
Al5          O15   1.941       .  S
Al5          O14   1.774       .  S
C6           O19   1.257       .  A
C6         C1213   1.484       .  S
O7           C17   1.262       .  A
O7           Al9   1.924       .  S
O8           C21   1.271       .  A
O8          Al18   1.959       .  S
Al9          O22   1.887       .  S
Al9          O19   1.885       .  S
Al9          O14   1.772       .  S
O10          C17   1.247       .  A
O10         Al18   1.863       .  S
O11          C20   1.256       .  A
O11         Al18   1.876       .  S
O12         Al18   1.935       .  S
O13          C20   1.278       .  A
O14         Al18   1.772       .  S
O15          C16   1.274       .  A
C16        C1233   1.497       .  S
C17        C1293   1.465       .  S
C20        C1253   1.496       .  S
C21          O22   1.260       .  A
C21        C1193   1.487       .  S
O23          C38   1.256       .  A
O23         Al31   1.871       .  S
C24          O34   1.261       .  A
C24          O25   1.280       .  A
C24        C1093   1.504       .  S
O25         Al27   1.985       .  S
O26          C28   1.259       .  A
O26         Al27   1.901       .  S
Al27         O35   1.948       .  S
Al27         O37   1.968       .  S
Al27         O36   1.788       .  S
C28          O41   1.254       .  A
C28        C1142   1.483       .  S
O29          C39   1.252       .  A
O29         Al31   1.881       .  S
O30          C43   1.268       .  A
O30         Al40   1.924       .  S
Al31         O44   1.914       .  S
Al31         O41   1.898       .  S
Al31         O36   1.781       .  S
O32          C39   1.252       .  A
O32         Al40   1.878       .  S
O33          C42   1.250       .  A
O33         Al40   1.878       .  S
O34         Al40   1.886       .  S
O35          C42   1.264       .  A
O36         Al40   1.797       .  S
O37          C38   1.275       .  A
C38        C1182   1.498       .  S
C39        C1113   1.444       .  S
C42        C1262   1.487       .  S
C43          O44   1.265       .  A
C43        C1153   1.489       .  S
O45          C60   1.254       .  A
O45         Al53   1.875       .  S
C46          O56   1.260       .  A
C46          O47   1.281       .  A
C46        C1062   1.516       .  S
O47         Al49   1.996       .  S
O48          C50   1.256       .  A
O48         Al49   1.883       .  S
Al49         O57   1.934       .  S
Al49         O59   1.991       .  S
Al49         O58   1.788       .  S
C50          O63   1.258       .  A
C50        C1013   1.479       .  S
O51          C61   1.258       .  A
O51         Al53   1.894       .  S
O52          C65   1.268       .  A
O52         Al62   1.929       .  S
Al53         O66   1.899       .  S
Al53         O63   1.916       .  S
Al53         O58   1.779       .  S
O54          C61   1.255       .  A
O54         Al62   1.880       .  S
O55          C64   1.257       .  A
O55         Al62   1.898       .  S
O56         Al62   1.893       .  S
O57          C64   1.263       .  A
O58         Al62   1.794       .  S
O59          C60   1.277       .  A
C60        C1242   1.514       .  S
C61        C1082   1.456       .  S
C64        C1033   1.488       .  S
C65          O66   1.260       .  A
C65         C993   1.481       .  S
O67          C82   1.259       .  A
O67         Al75   1.871       .  S
C68          O78   1.261       .  A
C68          O69   1.274       .  A
C68         C913   1.501       .  S
O69         Al71   1.963       .  S
O70          C72   1.257       .  A
O70         Al71   1.902       .  S
Al71         O79   1.934       .  S
Al71         O81   1.955       .  S
Al71         O80   1.791       .  S
C72          O85   1.257       .  A
C72         C953   1.503       .  S
O73          C83   1.261       .  A
O73         Al75   1.905       .  S
O74          C87   1.266       .  A
O74         Al84   1.931       .  S
Al75         O88   1.904       .  S
Al75         O85   1.910       .  S
Al75         O80   1.788       .  S
O76          C83   1.255       .  A
O76         Al84   1.877       .  S
O77          C86   1.254       .  A
O77         Al84   1.896       .  S
O78         Al84   1.899       .  S
O79          C86   1.262       .  A
O80         Al84   1.794       .  S
O81          C82   1.272       .  A
C82        C1173   1.489       .  S
C83         C933   1.457       .  S
C86        C1042   1.489       .  S
C87          O88   1.261       .  A
C87         C973   1.505       .  S
O89         C104   1.259       .  A
O89         Al97   1.894       .  S
C90         O100   1.270       .  A
C90          O91   1.265       .  A
C90         C902   1.517       .  S
O91         Al93   1.936       .  S
O92          C94   1.249       .  A
O92         Al93   1.866       .  S
Al93        O101   1.866       .  S
Al93        O103   1.924       .  S
Al93        O102   1.782       .  S
C94         O107   1.260       .  A
C94         C873   1.460       .  S
O95         C105   1.263       .  A
O95         Al97   1.903       .  S
O96         C109   1.279       .  A
O96        Al106   1.962       .  S
Al97        O110   1.902       .  S
Al97        O107   1.905       .  S
Al97        O102   1.778       .  S
O98         C105   1.265       .  A
O98        Al106   1.937       .  S
O99         C108   1.274       .  A
O99        Al106   1.988       .  S
O100       Al106   1.949       .  S
O101        C108   1.250       .  A
O102       Al106   1.779       .  S
O103        C104   1.261       .  A
C104       C1022   1.476   1_655  S
C105       C1002   1.492       .  S
C108        C853   1.497       .  S
C109        O110   1.263       .  A
C109        C833   1.506       .  S
O111        C126   1.256       .  A
O111       Al119   1.887       .  S
C112        O122   1.266       .  A
C112        O113   1.272       .  A
C112        C782   1.535       .  S
O113       Al115   1.944       .  S
O114        C116   1.248       .  A
O114       Al115   1.869       .  S
Al115       O123   1.873       .  S
Al115       O125   1.960       .  S
Al115       O124   1.776       .  S
C116        O129   1.266       .  A
C116        C793   1.478       .  S
O117        C127   1.261       .  A
O117       Al119   1.904       .  S
O118        C131   1.279       .  A
O118       Al128   1.958       .  S
Al119       O132   1.925       .  S
Al119       O129   1.937       .  S
Al119       O124   1.771       .  S
O120        C127   1.267       .  A
O120       Al128   1.944       .  S
O121        C130   1.273       .  A
O121       Al128   1.985       .  S
O122       Al128   1.941       .  S
O123        C130   1.254       .  A
O124       Al128   1.777       .  S
O125        C126   1.271       .  A
C126        C962   1.487   1_455  S
C127        C982   1.484       .  S
C130        C862   1.514       .  S
C131        O132   1.268       .  A
C131        C822   1.517       .  S
O133        C148   1.262       .  A
O133       Al141   1.900       .  S
C134        O144   1.266       .  A
C134        O135   1.263       .  A
C134        C762   1.527       .  S
O135       Al137   1.934       .  S
O136        C138   1.249       .  A
O136       Al137   1.870       .  S
Al137       O145   1.877       .  S
Al137       O147   1.954       .  S
Al137       O146   1.769       .  S
C138        O151   1.267       .  A
C138        C742   1.471       .  S
O139        C149   1.259       .  A
O139       Al141   1.887       .  S
O140        C153   1.275       .  A
O140       Al150   1.948       .  S
Al141       O154   1.925       .  S
Al141       O151   1.940       .  S
Al141       O146   1.772       .  S
O142        C149   1.270       .  A
O142       Al150   1.944       .  S
O143        C152   1.278       .  A
O143       Al150   1.988       .  S
O144       Al150   1.935       .  S
O145        C152   1.258       .  A
O146       Al150   1.772       .  S
O147        C148   1.268       .  A
C148       C1222   1.496   1_655  S
C149       C1202   1.487       .  S
C152        C713   1.496       .  S
C153        O154   1.267       .  A
C153        C842   1.510       .  S
O155        C170   1.257       .  A
O155       Al163   1.889       .  S
C156        O166   1.271       .  A
C156        O157   1.268       .  A
C156        C702   1.531       .  S
O157       Al159   1.946       .  S
O158        C160   1.251       .  A
O158       Al159   1.863       .  S
Al159       O167   1.879       .  S
Al159       O169   1.923       .  S
Al159       O168   1.783       .  S
C160        O173   1.260       .  A
C160        C682   1.461       .  S
O161        C171   1.256       .  A
O161       Al163   1.898       .  S
O162        C175   1.280       .  A
O162       Al172   1.962       .  S
Al163       O176   1.910       .  S
Al163       O173   1.906       .  S
Al163       O168   1.784       .  S
O164        C171   1.263       .  A
O164       Al172   1.937       .  S
O165        C174   1.272       .  A
O165       Al172   1.987       .  S
O166       Al172   1.948       .  S
O167        C174   1.252       .  A
O168       Al172   1.788       .  S
O169        C170   1.261       .  A
C170       C1133   1.484   1_455  S
C171       C1162   1.485       .  S
C174        C722   1.497       .  S
C175        O176   1.266       .  A
C175        C813   1.503       .  S
O177        C192   1.259       .  A
O177       Al185   1.903       .  S
C178        O188   1.281       .  A
C178        O179   1.255       .  A
C178        C753   1.513       .  S
O179       Al181   1.876       .  S
O180        C182   1.261       .  A
O180       Al181   1.899       .  S
Al181       O189   1.914       .  S
Al181       O191   1.902       .  S
Al181       O190   1.776       .  S
C182        O195   1.253       .  A
C182       C1302   1.446       .  S
O183        C193   1.261       .  A
O183       Al185   1.919       .  S
O184        C197   1.282       .  A
O184       Al194   2.021       .  S
Al185       O198   1.876       .  S
Al185       O195   1.872       .  S
Al185       O190   1.766       .  S
O186        C193   1.264       .  A
O186       Al194   1.910       .  S
O187        C196   1.272       .  A
O187       Al194   1.944       .  S
O188       Al194   2.005       .  S
O189        C196   1.264       .  A
O190       Al194   1.774       .  S
O191        C192   1.260       .  A
C192        C613   1.466       .  S
C193        C593   1.478       .  S
C196        C653   1.500       .  S
C197        O198   1.250       .  A
C197        C633   1.522       .  S
O199        C214   1.265       .  A
O199       Al207   1.912       .  S
C200        O210   1.265       .  A
C200        O201   1.267       .  A
C200        C693   1.517       .  S
O201       Al203   1.951       .  S
O202        C204   1.253       .  A
O202       Al203   1.871       .  S
Al203       O211   1.874       .  S
Al203       O213   1.948       .  S
Al203       O212   1.782       .  S
C204        O217   1.257       .  A
C204       C1122   1.456       .  S
O205        C215   1.264       .  A
O205       Al207   1.908       .  S
O206        C219   1.275       .  A
O206       Al216   1.957       .  S
Al207       O220   1.898       .  S
Al207       O217   1.906       .  S
Al207       O212   1.781       .  S
O208        C215   1.266       .  A
O208       Al216   1.923       .  S
O209        C218   1.273       .  A
O209       Al216   1.975       .  S
O210       Al216   1.936       .  S
O211        C218   1.256       .  A
O212       Al216   1.780       .  S
O213        C214   1.269       .  A
C214        C542   1.509       .  S
C215        C553   1.496       .  S
C218        C662   1.501       .  S
C219        O220   1.259       .  A
C219        C573   1.493       .  S
O221        C236   1.257       .  A
O221       Al229   1.886       .  S
C222        O232   1.271       .  A
C222        O223   1.266       .  A
C222        C893   1.533       .  S
O223       Al225   1.923       .  S
O224        C226   1.249       .  A
O224       Al225   1.870       .  S
Al225       O233   1.878       .  S
Al225       O235   1.935       .  S
Al225       O234   1.777       .  S
C226        O239   1.263       .  A
C226       C1073   1.470       .  S
O227        C237   1.262       .  A
O227       Al229   1.908       .  S
O228        C241   1.281       .  A
O228       Al238   1.954       .  S
Al229       O242   1.915       .  S
Al229       O239   1.921       .  S
Al229       O234   1.772       .  S
O230        C237   1.264       .  A
O230       Al238   1.941       .  S
O231        C240   1.279       .  A
O231       Al238   1.993       .  S
O232       Al238   1.952       .  S
O233        C240   1.248       .  A
O234       Al238   1.779       .  S
O235        C236   1.265       .  A
C236        C493   1.475       .  S
C237        C473   1.505       .  S
C240        C522   1.530       .  S
C241        O242   1.267       .  A
C241        C642   1.502       .  S
O243        C258   1.261       .  A
O243       Al251   1.888       .  S
C244        O254   1.265       .  A
C244        O245   1.268       .  A
C244        C773   1.509       .  S
O245       Al247   1.948       .  S
O246        C248   1.249       .  A
O246       Al247   1.868       .  S
Al247       O255   1.869       .  S
Al247       O257   1.938       .  S
Al247       O256   1.766       .  S
C248        O261   1.260       .  A
C248        C942   1.472       .  S
O249        C259   1.261       .  A
O249       Al251   1.890       .  S
O250        C263   1.279       .  A
O250       Al260   1.962       .  S
Al251       O264   1.913       .  S
Al251       O261   1.934       .  S
Al251       O256   1.775       .  S
O252        C259   1.270       .  A
O252       Al260   1.944       .  S
O253        C262   1.277       .  A
O253       Al260   2.001       .  S
O254       Al260   1.932       .  S
O255        C262   1.251       .  A
O256       Al260   1.778       .  S
O257        C258   1.268       .  A
C258        C442   1.475       .  S
C259        C462   1.491       .  S
C262        C513   1.508       .  S
C263        O264   1.265       .  A
C263        C582   1.502       .  S
O265        C280   1.258       .  A
O265       Al273   1.875       .  S
C266        O276   1.257       .  A
C266        O267   1.275       .  A
C266       C1282   1.499       .  S
O267       Al269   1.971       .  S
O268        C270   1.256       .  A
O268       Al269   1.892       .  S
Al269       O277   1.930       .  S
Al269       O279   1.980       .  S
Al269       O278   1.774       .  S
C270        O283   1.259       .  A
C270        C622   1.494       .  S
O271        C281   1.257       .  A
O271       Al273   1.886       .  S
O272        C285   1.263   1_455  A
O272       Al282   1.918       .  S
Al273       O286   1.906       .  S
Al273       O283   1.913       .  S
Al273       O278   1.776       .  S
O274        C281   1.260       .  A
O274       Al282   1.893       .  S
O275        C284   1.259       .  A
O275       Al282   1.902       .  S
O276       Al282   1.890       .  S
O277        C284   1.265       .  A
O278       Al282   1.781       .  S
O279        C280   1.276       .  A
C280        C393   1.494       .  S
C281        C733   1.449       .  S
C284        C422   1.482       .  S
C285        O286   1.261   1_655  A
C285        C602   1.496       .  S
O287        C302   1.260       .  A
O287       Al295   1.887       .  S
C288        O298   1.257       .  A
C288        O289   1.271       .  A
C288       C1102   1.513       .  S
O289       Al291   1.975       .  S
O290        C292   1.266       .  A
O290       Al291   1.915       .  S
Al291       O299   1.933       .  S
Al291       O301   1.960       .  S
Al291       O300   1.788       .  S
C292        O305   1.263       .  A
C292        C533   1.493       .  S
O293        C303   1.256       .  A
O293       Al295   1.891       .  S
O294        C307   1.263   1_655  A
O294       Al304   1.915       .  S
Al295       O308   1.933       .  S
Al295       O305   1.926       .  S
Al295       O300   1.791       .  S
O296        C303   1.256       .  A
O296       Al304   1.875       .  S
O297        C306   1.260       .  A
O297       Al304   1.902       .  S
O298       Al304   1.890       .  S
O299        C306   1.268       .  A
O300       Al304   1.785       .  S
O301        C302   1.270       .  A
C302        C373   1.513       .  S
C303        C673   1.460       .  S
C306        C413   1.486       .  S
C307        O308   1.266   1_455  A
C307        C562   1.488       .  S
O309        C324   1.255       .  A
O309       Al317   1.880       .  S
C310        O320   1.261       .  A
C310        O311   1.278       .  A
C310       C1053   1.518       .  S
O311       Al313   1.988       .  S
O312        C314   1.254       .  A
O312       Al313   1.876       .  S
Al313       O321   1.932       .  S
Al313       O323   1.977       .  S
Al313       O322   1.788       .  S
C314        O327   1.259       .  A
C314        C502   1.477       .  S
O315        C325   1.250       .  A
O315       Al317   1.879       .  S
O316        C329   1.269   1_455  A
O316       Al326   1.920       .  S
Al317       O330   1.919       .  S
Al317       O327   1.900       .  S
Al317       O322   1.789       .  S
O318        C325   1.249       .  A
O318       Al326   1.860       .  S
O319        C328   1.256       .  A
O319       Al326   1.894       .  S
O320       Al326   1.898       .  S
O321        C328   1.264       .  A
O322       Al326   1.791       .  S
O323        C324   1.273       .  A
C324        C402   1.500       .  S
C325        C882   1.442       .  S
C328        C362   1.482       .  S
C329        O330   1.266   1_655  A
C329        C482   1.484       .  S
O331        C346   1.253       .  A
O331       Al339   1.875       .  S
C332        O342   1.260       .  A
C332        O333   1.281       .  A
C332        C922   1.500       .  S
O333       Al335   1.991       .  S
O334        C336   1.259       .  A
O334       Al335   1.887       .  S
Al335       O343   1.933       .  S
Al335       O345   1.969       .  S
Al335       O344   1.786       .  S
C336        O349   1.262       .  A
C336        C433   1.474       .  S
O337        C347   1.255       .  A
O337       Al339   1.897       .  S
O338        C351   1.265       .  A
O338       Al348   1.899       .  S
Al339       O352   1.916       .  S
Al339       O349   1.916       .  S
Al339       O344   1.775       .  S
O340        C347   1.254       .  A
O340       Al348   1.899       .  S
O341        C350   1.258       .  A
O341       Al348   1.912       .  S
O342       Al348   1.875       .  S
O343        C350   1.263       .  A
O344       Al348   1.789       .  S
O345        C346   1.271       .  A
C346        C382   1.502       .  S
C347        C802   1.472       .  S
C350        C353   1.488       .  S
C351        O352   1.267       .  A
C351        C453   1.469   1_655  S
C353        C354   1.412       .  A
C353        C358   1.410       .  A
C354        C355   1.416       .  A
C354       Br366   1.928       .  S
C355        C356   1.413       .  A
C355       Br370   1.928   1_655  S
C356        C359   1.500   1_655  S
C356        C357   1.413       .  A
C357        C358   1.411       .  A
C357       Br365   1.931       .  S
C358       Br369   1.929       .  S
C359        C360   1.413   1_455  A
C359        C364   1.413       .  A
C360        C361   1.414   1_655  A
C360       Br371   1.927       .  S
C361        C362   1.410       .  A
C361       Br367   1.928   1_455  S
C362        C363   1.409       .  A
C363        C364   1.411       .  A
C363       Br372   1.930       .  S
C364       Br368   1.929       .  S
C373        C374   1.425       .  A
C373        C378   1.422       .  A
C374        C375   1.418       .  A
C374       Br386   1.934       .  S
C375        C376   1.410       .  A
C375       Br390   1.930       .  S
C376        C379   1.499       .  S
C376        C377   1.405       .  A
C377        C378   1.411       .  A
C377       Br385   1.935       .  S
C378       Br389   1.921       .  S
C379        C380   1.403       .  A
C379        C384   1.415       .  A
C380        C381   1.406       .  A
C380       Br391   1.937       .  S
C381        C382   1.425       .  A
C381       Br387   1.928       .  S
C382        C383   1.413       .  A
C383        C384   1.421       .  A
C383       Br392   1.926       .  S
C384       Br388   1.926       .  S
C393        C394   1.413       .  A
C393        C398   1.416       .  A
C394        C395   1.413       .  A
C394       Br406   1.927       .  S
C395        C396   1.411       .  A
C395       Br410   1.929       .  S
C396        C399   1.499   1_565  S
C396        C397   1.410       .  A
C397        C398   1.414       .  A
C397       Br405   1.930   1_565  S
C398       Br409   1.925       .  S
C399        C400   1.415       .  A
C399        C404   1.403   1_545  A
C400        C401   1.421       .  A
C400       Br411   1.925       .  S
C401        C402   1.411       .  A
C401       Br407   1.924       .  S
C402        C403   1.421       .  A
C403        C404   1.408   1_545  A
C403       Br412   1.919   1_545  S
C404       Br408   1.937       .  S
C413        C414   1.410       .  A
C413        C418   1.412       .  A
C414        C415   1.415       .  A
C414       Br426   1.926       .  S
C415        C416   1.411       .  A
C415       Br430   1.926   1_655  S
C416        C419   1.497   1_655  S
C416        C417   1.411       .  A
C417        C418   1.411       .  A
C417       Br425   1.931       .  S
C418       Br429   1.930       .  S
C419        C420   1.411   1_455  A
C419        C424   1.412       .  A
C420        C421   1.413   1_655  A
C420       Br431   1.927       .  S
C421        C422   1.411       .  A
C421       Br427   1.927   1_455  S
C422        C423   1.408       .  A
C423        C424   1.411       .  A
C423       Br432   1.927       .  S
C424       Br428   1.929       .  S
C433        C434   1.413       .  A
C433        C438   1.408       .  A
C434        C435   1.405       .  A
C434       Br446   1.928       .  S
C435        C436   1.407       .  A
C435       Br450   1.932       .  S
C436        C439   1.482       .  S
C436        C437   1.410       .  A
C437        C438   1.409       .  A
C437       Br445   1.928       .  S
C438       Br449   1.928       .  S
C439        C440   1.410       .  A
C439        C444   1.406       .  A
C440        C441   1.411       .  A
C440       Br451   1.926       .  S
C441        C442   1.409       .  A
C441       Br447   1.929       .  S
C442        C443   1.414       .  A
C443        C444   1.402       .  A
C443       Br452   1.930       .  S
C444       Br448   1.934       .  S
C453        C454   1.413       .  A
C453        C458   1.408       .  A
C454        C455   1.403       .  A
C454       Br466   1.930       .  S
C455        C456   1.407       .  A
C455       Br470   1.931       .  S
C456        C459   1.481       .  S
C456        C457   1.409       .  A
C457        C458   1.406       .  A
C457       Br465   1.928       .  S
C458       Br469   1.929       .  S
C459        C460   1.407       .  A
C459        C464   1.404       .  A
C460        C461   1.407       .  A
C460       Br471   1.932       .  S
C461        C462   1.417       .  A
C461       Br467   1.933       .  S
C462        C463   1.424       .  A
C463        C464   1.407       .  A
C463       Br472   1.934       .  S
C464       Br468   1.934       .  S
C473        C474   1.423       .  A
C473        C478   1.425   1_565  A
C474        C475   1.412       .  A
C474       Br486   1.935       .  S
C475        C476   1.410   1_565  A
C475       Br490   1.933       .  S
C476        C479   1.498       .  S
C476        C477   1.407       .  A
C477        C478   1.412       .  A
C477       Br485   1.934       .  S
C478       Br489   1.934       .  S
C479        C480   1.412       .  A
C479        C484   1.413       .  A
C480        C481   1.410       .  A
C480       Br491   1.933       .  S
C481        C482   1.413       .  A
C481       Br487   1.929       .  S
C482        C483   1.410       .  A
C483        C484   1.412       .  A
C483       Br492   1.929       .  S
C484       Br488   1.929       .  S
C493        C494   1.408       .  A
C493        C498   1.410       .  A
C494        C495   1.409       .  A
C494       Br506   1.925       .  S
C495        C496   1.410       .  A
C495       Br510   1.929       .  S
C496        C499   1.480       .  S
C496        C497   1.405       .  A
C497        C498   1.403       .  A
C497       Br505   1.934   1_565  S
C498       Br509   1.919       .  S
C499        C500   1.406   1_565  A
C499        C504   1.409       .  A
C500        C501   1.403       .  A
C500       Br511   1.932       .  S
C501        C502   1.414       .  A
C501       Br507   1.933       .  S
C502        C503   1.412       .  A
C503        C504   1.408   1_545  A
C503       Br512   1.931   1_545  S
C504       Br508   1.930       .  S
C513        C514   1.424       .  A
C513        C518   1.414       .  A
C514        C515   1.411       .  A
C514       Br526   1.932       .  S
C515        C516   1.407       .  A
C515       Br530   1.936       .  S
C516        C519   1.509       .  S
C516        C517   1.416       .  A
C517        C518   1.424       .  A
C517       Br525   1.925       .  S
C518       Br529   1.924       .  S
C519        C520   1.402       .  A
C519        C524   1.412       .  A
C520        C521   1.415       .  A
C520       Br531   1.937       .  S
C521        C522   1.438       .  A
C521       Br527   1.933       .  S
C522        C523   1.425       .  A
C523        C524   1.424       .  A
C523       Br532   1.931       .  S
C524       Br528   1.928       .  S
C533        C534   1.411       .  A
C533        C538   1.417       .  A
C534        C535   1.412       .  A
C534       Br546   1.928       .  S
C535        C536   1.411       .  A
C535       Br550   1.927       .  S
C536        C539   1.496       .  S
C536        C537   1.409       .  A
C537        C538   1.411       .  A
C537       Br545   1.930       .  S
C538       Br549   1.926       .  S
C539        C540   1.405       .  A
C539        C544   1.407       .  A
C540        C541   1.413       .  A
C540       Br551   1.934       .  S
C541        C542   1.428       .  A
C541       Br547   1.934       .  S
C542        C543   1.423       .  A
C543        C544   1.414       .  A
C543       Br552   1.932       .  S
C544       Br548   1.931       .  S
C553        C554   1.422       .  A
C553        C558   1.420       .  A
C554        C555   1.412       .  A
C554       Br566   1.933       .  S
C555        C556   1.407       .  A
C555       Br570   1.931       .  S
C556        C559   1.489       .  S
C556        C557   1.407       .  A
C557        C558   1.407       .  A
C557       Br565   1.933       .  S
C558       Br569   1.934       .  S
C559        C560   1.410       .  A
C559        C564   1.407       .  A
C560        C561   1.411       .  A
C560       Br571   1.928       .  S
C561        C562   1.407       .  A
C561       Br567   1.916       .  S
C562        C563   1.413       .  A
C563        C564   1.407       .  A
C563       Br572   1.922       .  S
C564       Br568   1.931       .  S
C573        C574   1.410       .  A
C573        C578   1.415       .  A
C574        C575   1.419       .  A
C574       Br586   1.926       .  S
C575        C576   1.416       .  A
C575       Br590   1.926       .  S
C576        C579   1.506       .  S
C576        C577   1.410       .  A
C577        C578   1.412       .  A
C577       Br585   1.932       .  S
C578       Br589   1.923       .  S
C579        C580   1.408       .  A
C579        C584   1.416       .  A
C580        C581   1.410       .  A
C580       Br591   1.933       .  S
C581        C582   1.418       .  A
C581       Br587   1.924       .  S
C582        C583   1.412       .  A
C583        C584   1.421       .  A
C583       Br592   1.924       .  S
C584       Br588   1.926       .  S
C593        C594   1.412   1_545  A
C593        C598   1.409       .  A
C594        C595   1.406       .  A
C594       Br606   1.926       .  S
C595        C596   1.409       .  A
C595       Br610   1.932       .  S
C596        C599   1.485       .  S
C596        C597   1.411       .  A
C597        C598   1.408   1_565  A
C597       Br605   1.929       .  S
C598       Br609   1.929       .  S
C599        C600   1.405       .  A
C599        C604   1.408       .  A
C600        C601   1.404       .  A
C600       Br611   1.934   1_565  S
C601        C602   1.421       .  A
C601       Br607   1.937       .  S
C602        C603   1.422       .  A
C603        C604   1.412       .  A
C603       Br612   1.932       .  S
C604       Br608   1.931       .  S
C613        C614   1.411       .  A
C613        C618   1.407       .  A
C614        C615   1.404       .  A
C614       Br626   1.928       .  S
C615        C616   1.408       .  A
C615       Br630   1.932       .  S
C616        C619   1.479       .  S
C616        C617   1.409       .  A
C617        C618   1.405       .  A
C617       Br625   1.929       .  S
C618       Br629   1.928       .  S
C619        C620   1.402       .  A
C619        C624   1.405   1_545  A
C620        C621   1.406       .  A
C620       Br631   1.933       .  S
C621        C622   1.424   1_545  A
C621       Br627   1.935       .  S
C622        C623   1.424       .  A
C623        C624   1.406       .  A
C623       Br632   1.936       .  S
C624       Br628   1.935       .  S
C633        C634   1.438       .  A
C633        C638   1.419       .  A
C634        C635   1.411   1_545  A
C634       Br646   1.934   1_545  S
C635        C636   1.401   1_565  A
C635       Br650   1.942       .  S
C636        C639   1.505   1_545  S
C636        C637   1.414       .  A
C637        C638   1.424       .  A
C637       Br645   1.927       .  S
C638       Br649   1.927       .  S
C639        C640   1.408       .  A
C639        C644   1.415       .  A
C640        C641   1.412       .  A
C640       Br651   1.932   1_565  S
C641        C642   1.420       .  A
C641       Br647   1.929       .  S
C642        C643   1.415       .  A
C643        C644   1.419       .  A
C643       Br652   1.928       .  S
C644       Br648   1.928       .  S
C653        C654   1.416       .  A
C653        C658   1.416       .  A
C654        C655   1.419       .  A
C654       Br666   1.929       .  S
C655        C656   1.413       .  A
C655       Br670   1.926       .  S
C656        C659   1.506       .  S
C656        C657   1.411       .  A
C657        C658   1.413       .  A
C657       Br665   1.932       .  S
C658       Br669   1.929       .  S
C659        C660   1.414       .  A
C659        C664   1.410       .  A
C660        C661   1.418       .  A
C660       Br671   1.928       .  S
C661        C662   1.414       .  A
C661       Br667   1.925       .  S
C662        C663   1.416       .  A
C663        C664   1.413       .  A
C663       Br672   1.930       .  S
C664       Br668   1.928       .  S
C673        C674   1.408       .  A
C673        C678   1.412       .  A
C674        C675   1.397       .  A
C674       Br686   1.929       .  S
C675        C676   1.405       .  A
C675       Br690   1.932       .  S
C676        C679   1.463   1_655  S
C676        C677   1.406       .  A
C677        C678   1.402       .  A
C677       Br685   1.932   1_655  S
C678       Br689   1.930       .  S
C679        C680   1.400   1_455  A
C679        C684   1.408       .  A
C680        C681   1.394   1_655  A
C680       Br691   1.938       .  S
C681        C682   1.416       .  A
C681       Br687   1.930   1_455  S
C682        C683   1.407       .  A
C683        C684   1.404       .  A
C683       Br692   1.930       .  S
C684       Br688   1.925       .  S
C693        C694   1.416       .  A
C693        C698   1.419       .  A
C694        C695   1.424       .  A
C694       Br706   1.921       .  S
C695        C696   1.415       .  A
C695       Br710   1.927       .  S
C696        C699   1.522       .  S
C696        C697   1.413       .  A
C697        C698   1.421       .  A
C697       Br705   1.930       .  S
C698       Br709   1.927       .  S
C699        C700   1.414       .  A
C699        C704   1.410       .  A
C700        C701   1.424       .  A
C700       Br711   1.928       .  S
C701        C702   1.422       .  A
C701       Br707   1.931       .  S
C702        C703   1.430       .  A
C703        C704   1.422       .  A
C703       Br712   1.932       .  S
C704       Br708   1.932       .  S
C713        C714   1.413       .  A
C713        C718   1.413       .  A
C714        C715   1.417       .  A
C714       Br726   1.928       .  S
C715        C716   1.415       .  A
C715       Br730   1.929       .  S
C716        C719   1.509   1_655  S
C716        C717   1.412   1_655  A
C717        C718   1.415   1_455  A
C717       Br725   1.927       .  S
C718       Br729   1.929       .  S
C719        C720   1.413       .  A
C719        C724   1.414       .  A
C720        C721   1.417       .  A
C720       Br731   1.927   1_455  S
C721        C722   1.412       .  A
C721       Br727   1.926       .  S
C722        C723   1.414       .  A
C723        C724   1.417       .  A
C723       Br732   1.928       .  S
C724       Br728   1.930       .  S
C733        C734   1.408   1_565  A
C733        C738   1.406       .  A
C734        C735   1.396   1_455  A
C734       Br746   1.929       .  S
C735        C736   1.405       .  A
C735       Br750   1.933       .  S
C736        C739   1.459       .  S
C736        C737   1.406   1_645  A
C737        C738   1.397       .  A
C737       Br745   1.933       .  S
C738       Br749   1.927       .  S
C739        C740   1.406       .  A
C739        C744   1.397       .  A
C740        C741   1.401       .  A
C740       Br751   1.931   1_545  S
C741        C742   1.412       .  A
C741       Br747   1.929   1_545  S
C742        C743   1.425       .  A
C743        C744   1.394       .  A
C743       Br752   1.934       .  S
C744       Br748   1.939   1_655  S
C753        C754   1.416       .  A
C753        C758   1.423       .  A
C754        C755   1.423       .  A
C754       Br766   1.925       .  S
C755        C756   1.417       .  A
C755       Br770   1.929       .  S
C756        C759   1.518       .  S
C756        C757   1.411       .  A
C757        C758   1.416       .  A
C757       Br765   1.932       .  S
C758       Br769   1.932       .  S
C759        C760   1.411       .  A
C759        C764   1.413       .  A
C760        C761   1.422       .  A
C760       Br771   1.931       .  S
C761        C762   1.428       .  A
C761       Br767   1.931       .  S
C762        C763   1.425       .  A
C763        C764   1.419       .  A
C763       Br772   1.933       .  S
C764       Br768   1.933       .  S
C773        C774   1.418       .  A
C773        C778   1.413       .  A
C774        C775   1.417       .  A
C774       Br786   1.925       .  S
C775        C776   1.412       .  A
C775       Br790   1.931       .  S
C776        C779   1.518   1_556  S
C776        C777   1.417       .  A
C777        C778   1.424       .  A
C777       Br785   1.925       .  S
C778       Br789   1.926       .  S
C779        C780   1.409       .  A
C779        C784   1.411       .  A
C780        C781   1.422       .  A
C780       Br791   1.933   1_554  S
C781        C782   1.431       .  A
C781       Br787   1.934       .  S
C782        C783   1.430       .  A
C783        C784   1.423       .  A
C783       Br792   1.933       .  S
C784       Br788   1.931       .  S
C793        C794   1.421       .  A
C793        C798   1.407       .  A
C794        C795   1.403       .  A
C794       Br806   1.934       .  S
C795        C796   1.405   1_554  A
C795       Br810   1.936   1_454  S
C796        C799   1.479   1_455  S
C796        C797   1.409   1_556  A
C797        C798   1.407       .  A
C797       Br805   1.924   1_554  S
C798       Br809   1.928       .  S
C799        C800   1.409       .  A
C799        C804   1.405       .  A
C800        C801   1.404       .  A
C800       Br811   1.925   1_556  S
C801        C802   1.406       .  A
C801       Br807   1.929       .  S
C802        C803   1.417       .  A
C803        C804   1.405       .  A
C803       Br812   1.927       .  S
C804       Br808   1.933   1_655  S
C813        C814   1.416       .  A
C813        C818   1.414       .  A
C814        C815   1.412       .  A
C814       Br826   1.927       .  S
C815        C816   1.411       .  A
C815       Br830   1.932       .  S
C816        C819   1.512       .  S
C816        C817   1.417       .  A
C817        C818   1.422       .  A
C817       Br825   1.928       .  S
C818       Br829   1.926       .  S
C819        C820   1.408       .  A
C819        C824   1.414       .  A
C820        C821   1.414       .  A
C820       Br831   1.935       .  S
C821        C822   1.427       .  A
C821       Br827   1.933       .  S
C822        C823   1.421       .  A
C823        C824   1.423       .  A
C823       Br832   1.929       .  S
C824       Br828   1.929       .  S
C833        C834   1.422       .  A
C833        C838   1.416       .  A
C834        C835   1.410       .  A
C834       Br846   1.930       .  S
C835        C836   1.406       .  A
C835       Br850   1.933   1_565  S
C836        C839   1.506   1_565  S
C836        C837   1.414       .  A
C837        C838   1.421       .  A
C837       Br845   1.926       .  S
C838       Br849   1.927       .  S
C839        C840   1.408   1_545  A
C839        C844   1.413       .  A
C840        C841   1.413   1_565  A
C840       Br851   1.933       .  S
C841        C842   1.421       .  A
C841       Br847   1.931       .  S
C842        C843   1.419       .  A
C843        C844   1.420       .  A
C843       Br852   1.929       .  S
C844       Br848   1.929       .  S
C853        C854   1.418       .  A
C853        C858   1.413       .  A
C854        C855   1.408       .  A
C854       Br866   1.928       .  S
C855        C856   1.407       .  A
C855       Br870   1.935       .  S
C856        C859   1.502   1_655  S
C856        C857   1.415       .  A
C857        C858   1.421       .  A
C857       Br865   1.925       .  S
C858       Br869   1.927       .  S
C859        C860   1.404   1_455  A
C859        C864   1.412       .  A
C860        C861   1.411   1_655  A
C860       Br871   1.934       .  S
C861        C862   1.425       .  A
C861       Br867   1.926   1_455  S
C862        C863   1.422       .  A
C863        C864   1.421       .  A
C863       Br872   1.929       .  S
C864       Br868   1.929       .  S
C873        C874   1.409       .  A
C873        C878   1.420       .  A
C874        C875   1.401   1_565  A
C874       Br886   1.929   1_565  S
C875        C876   1.404   1_544  A
C875       Br890   1.928   1_554  S
C876        C879   1.453   1_565  S
C876        C877   1.399   1_556  A
C877        C878   1.391       .  A
C877       Br885   1.943   1_654  S
C878       Br889   1.931       .  S
C879        C880   1.404   1_545  A
C879        C884   1.406   1_655  A
C880        C881   1.394   1_665  A
C880       Br891   1.932       .  S
C881        C882   1.407       .  A
C881       Br887   1.929   1_545  S
C882        C883   1.403       .  A
C883        C884   1.396       .  A
C883       Br892   1.926       .  S
C884       Br888   1.929   1_556  S
C893        C894   1.431       .  A
C893        C898   1.429       .  A
C894        C895   1.423       .  A
C894       Br906   1.934       .  S
C895        C896   1.410       .  A
C895       Br910   1.931   1_556  S
C896        C899   1.516   1_556  S
C896        C897   1.409       .  A
C897        C898   1.420       .  A
C897       Br905   1.937       .  S
C898       Br909   1.922       .  S
C899        C900   1.410       .  A
C899        C904   1.414       .  A
C900        C901   1.415       .  A
C900       Br911   1.932       .  S
C901        C902   1.419       .  A
C901       Br907   1.920       .  S
C902        C903   1.419       .  A
C903        C904   1.424       .  A
C903       Br912   1.923       .  S
C904       Br908   1.929   1_554  S
C913        C914   1.413       .  A
C913        C918   1.416       .  A
C914        C915   1.419       .  A
C914       Br926   1.924       .  S
C915        C916   1.412       .  A
C915       Br930   1.926   1_554  S
C916        C919   1.505   1_554  S
C916        C917   1.409       .  A
C917        C918   1.413       .  A
C917       Br925   1.932       .  S
C918       Br929   1.919       .  S
C919        C920   1.410       .  A
C919        C924   1.413       .  A
C920        C921   1.414       .  A
C920       Br931   1.929   1_556  S
C921        C922   1.417       .  A
C921       Br927   1.931       .  S
C922        C923   1.415       .  A
C923        C924   1.418       .  A
C923       Br932   1.925       .  S
C924       Br928   1.929       .  S
C933        C934   1.406       .  A
C933        C938   1.409       .  A
C934        C935   1.400       .  A
C934       Br946   1.925       .  S
C935        C936   1.407       .  A
C935       Br950   1.931   1_554  S
C936        C939   1.468   1_554  S
C936        C937   1.407       .  A
C937        C938   1.402       .  A
C937       Br945   1.931       .  S
C938       Br949   1.927       .  S
C939        C940   1.399       .  A
C939        C944   1.409       .  A
C940        C941   1.394       .  A
C940       Br951   1.938       .  S
C941        C942   1.418       .  A
C941       Br947   1.929       .  S
C942        C943   1.410       .  A
C943        C944   1.408       .  A
C943       Br952   1.929       .  S
C944       Br948   1.929       .  S
C953        C954   1.424       .  A
C953        C958   1.423       .  A
C954        C955   1.412       .  A
C954       Br966   1.934       .  S
C955        C956   1.407       .  A
C955       Br970   1.933       .  S
C956        C959   1.490       .  S
C956        C957   1.405       .  A
C957        C958   1.410       .  A
C957       Br965   1.932       .  S
C958       Br969   1.934       .  S
C959        C960   1.411       .  A
C959        C964   1.405       .  A
C960        C961   1.415       .  A
C960       Br971   1.927       .  S
C961        C962   1.413       .  A
C961       Br967   1.925       .  S
C962        C963   1.410       .  A
C963        C964   1.404       .  A
C963       Br972   1.909       .  S
C964       Br968   1.934       .  S
C973        C974   1.424       .  A
C973        C978   1.424       .  A
C974        C975   1.407       .  A
C974       Br986   1.936       .  S
C975        C976   1.405       .  A
C975       Br990   1.935       .  S
C976        C979   1.492       .  S
C976        C977   1.408       .  A
C977        C978   1.416       .  A
C977       Br985   1.930       .  S
C978       Br989   1.930       .  S
C979        C980   1.406       .  A
C979        C984   1.412       .  A
C980        C981   1.406       .  A
C980       Br991   1.933       .  S
C981        C982   1.413       .  A
C981       Br987   1.921       .  S
C982        C983   1.410       .  A
C983        C984   1.413       .  A
C983       Br992   1.928       .  S
C984       Br988   1.924       .  S
C993        C994   1.413       .  A
C993        C998   1.411       .  A
C994        C995   1.411       .  A
C994      Br1006   1.929       .  S
C995        C996   1.410       .  A
C995      Br1010   1.930       .  S
C996        C999   1.494       .  S
C996        C997   1.410       .  A
C997        C998   1.411       .  A
C997      Br1005   1.928       .  S
C998      Br1009   1.930       .  S
C999       C1000   1.410   1_545  A
C999       C1004   1.407       .  A
C1000      C1001   1.412       .  A
C1000     Br1011   1.929       .  S
C1001      C1002   1.416       .  A
C1001     Br1007   1.931       .  S
C1002      C1003   1.417   1_565  A
C1003      C1004   1.411       .  A
C1003     Br1012   1.931       .  S
C1004     Br1008   1.930       .  S
C1013      C1014   1.413       .  A
C1013      C1018   1.411   1_545  A
C1014      C1015   1.406       .  A
C1014     Br1026   1.931       .  S
C1015      C1016   1.407   1_545  A
C1015     Br1030   1.932       .  S
C1016      C1019   1.484       .  S
C1016      C1017   1.410       .  A
C1017      C1018   1.410       .  A
C1017     Br1025   1.928       .  S
C1018     Br1029   1.929       .  S
C1019      C1020   1.411       .  A
C1019      C1024   1.407       .  A
C1020      C1021   1.411       .  A
C1020     Br1031   1.927       .  S
C1021      C1022   1.409       .  A
C1021     Br1027   1.929       .  S
C1022      C1023   1.411       .  A
C1023      C1024   1.404       .  A
C1023     Br1032   1.927   1_465  S
C1024     Br1028   1.933   1_565  S
C1033      C1034   1.408       .  A
C1033      C1038   1.411       .  A
C1034      C1035   1.409       .  A
C1034     Br1046   1.926       .  S
C1035      C1036   1.412       .  A
C1035     Br1050   1.930       .  S
C1036      C1039   1.502       .  S
C1036      C1037   1.414       .  A
C1037      C1038   1.417       .  A
C1037     Br1045   1.925       .  S
C1038     Br1049   1.927       .  S
C1039      C1040   1.414       .  A
C1039      C1044   1.411       .  A
C1040      C1041   1.415       .  A
C1040     Br1051   1.930       .  S
C1041      C1042   1.410       .  A
C1041     Br1047   1.926       .  S
C1042      C1043   1.411       .  A
C1043      C1044   1.414       .  A
C1043     Br1052   1.926       .  S
C1044     Br1048   1.927       .  S
C1053      C1054   1.419       .  A
C1053      C1058   1.420       .  A
C1054      C1055   1.422       .  A
C1054     Br1066   1.922       .  S
C1055      C1056   1.414       .  A
C1055     Br1070   1.930       .  S
C1056      C1059   1.521   1_556  S
C1056      C1057   1.414       .  A
C1057      C1058   1.422       .  A
C1057     Br1065   1.928   1_556  S
C1058     Br1069   1.930       .  S
C1059      C1060   1.412       .  A
C1059      C1064   1.414       .  A
C1060      C1061   1.419       .  A
C1060     Br1071   1.926       .  S
C1061      C1062   1.417       .  A
C1061     Br1067   1.920       .  S
C1062      C1063   1.421       .  A
C1063      C1064   1.424       .  A
C1063     Br1072   1.927       .  S
C1064     Br1068   1.928   1_554  S
C1073      C1074   1.409       .  A
C1073      C1078   1.419       .  A
C1074      C1075   1.406       .  A
C1074     Br1086   1.928       .  S
C1075      C1076   1.407       .  A
C1075     Br1090   1.927   1_565  S
C1076      C1079   1.467   1_566  S
C1076      C1077   1.403       .  A
C1077      C1078   1.396       .  A
C1077     Br1085   1.939       .  S
C1078     Br1089   1.932       .  S
C1079      C1080   1.403   1_545  A
C1079      C1084   1.408       .  A
C1080      C1081   1.398   1_565  A
C1080     Br1091   1.932       .  S
C1081      C1082   1.412       .  A
C1081     Br1087   1.928   1_545  S
C1082      C1083   1.407       .  A
C1083      C1084   1.401       .  A
C1083     Br1092   1.932       .  S
C1084     Br1088   1.925   1_554  S
C1093      C1094   1.417       .  A
C1093      C1098   1.414       .  A
C1094      C1095   1.420       .  A
C1094     Br1106   1.927       .  S
C1095      C1096   1.414       .  A
C1095     Br1110   1.927       .  S
C1096      C1099   1.512       .  S
C1096      C1097   1.412       .  A
C1097      C1098   1.414       .  A
C1097     Br1105   1.931       .  S
C1098     Br1109   1.918       .  S
C1099      C1100   1.410       .  A
C1099      C1104   1.415       .  A
C1100      C1101   1.415       .  A
C1100     Br1111   1.931       .  S
C1101      C1102   1.422       .  A
C1101     Br1107   1.932       .  S
C1102      C1103   1.418       .  A
C1103      C1104   1.421       .  A
C1103     Br1112   1.928       .  S
C1104     Br1108   1.929       .  S
C1113      C1114   1.406       .  A
C1113      C1118   1.405       .  A
C1114      C1115   1.394       .  A
C1114     Br1126   1.930       .  S
C1115      C1116   1.405       .  A
C1115     Br1130   1.933       .  S
C1116      C1119   1.455       .  S
C1116      C1117   1.404       .  A
C1117      C1118   1.397       .  A
C1117     Br1125   1.929       .  S
C1118     Br1129   1.927       .  S
C1119      C1120   1.405       .  A
C1119      C1124   1.400       .  A
C1120      C1121   1.400       .  A
C1120     Br1131   1.929       .  S
C1121      C1122   1.408       .  A
C1121     Br1127   1.930       .  S
C1122      C1123   1.415       .  A
C1123      C1124   1.393       .  A
C1123     Br1132   1.928       .  S
C1124     Br1128   1.938       .  S
C1133      C1134   1.415       .  A
C1133      C1138   1.411       .  A
C1134      C1135   1.405       .  A
C1134     Br1146   1.928       .  S
C1135      C1136   1.406       .  A
C1135     Br1150   1.934       .  S
C1136      C1139   1.488       .  S
C1136      C1137   1.411       .  A
C1137      C1138   1.414       .  A
C1137     Br1145   1.927       .  S
C1138     Br1149   1.926       .  S
C1139      C1140   1.410       .  A
C1139      C1144   1.408       .  A
C1140      C1141   1.411       .  A
C1140     Br1151   1.928       .  S
C1141      C1142   1.413       .  A
C1141     Br1147   1.930       .  S
C1142      C1143   1.412       .  A
C1143      C1144   1.407       .  A
C1143     Br1152   1.929       .  S
C1144     Br1148   1.930       .  S
C1153      C1154   1.414       .  A
C1153      C1158   1.415       .  A
C1154      C1155   1.408       .  A
C1154     Br1166   1.931       .  S
C1155      C1156   1.408       .  A
C1155     Br1170   1.930       .  S
C1156      C1159   1.493       .  S
C1156      C1157   1.410       .  A
C1157      C1158   1.413       .  A
C1157     Br1165   1.928       .  S
C1158     Br1169   1.929       .  S
C1159      C1160   1.409       .  A
C1159      C1164   1.411       .  A
C1160      C1161   1.411       .  A
C1160     Br1171   1.929       .  S
C1161      C1162   1.413       .  A
C1161     Br1167   1.928       .  S
C1162      C1163   1.408       .  A
C1163      C1164   1.411       .  A
C1163     Br1172   1.922       .  S
C1164     Br1168   1.928       .  S
C1173      C1174   1.412       .  A
C1173      C1178   1.416       .  A
C1174      C1175   1.408       .  A
C1174     Br1186   1.928       .  S
C1175      C1176   1.409       .  A
C1175     Br1190   1.930       .  S
C1176      C1179   1.492       .  S
C1176      C1177   1.409       .  A
C1177      C1178   1.413       .  A
C1177     Br1185   1.930       .  S
C1178     Br1189   1.924       .  S
C1179      C1180   1.412       .  A
C1179      C1184   1.401       .  A
C1180      C1181   1.417       .  A
C1180     Br1191   1.926       .  S
C1181      C1182   1.412       .  A
C1181     Br1187   1.926       .  S
C1182      C1183   1.427       .  A
C1183      C1184   1.406       .  A
C1183     Br1192   1.930       .  S
C1184     Br1188   1.938       .  S
C1193      C1194   1.417       .  A
C1193      C1198   1.412       .  A
C1194      C1195   1.406       .  A
C1194     Br1206   1.930   1_565  S
C1195      C1196   1.406       .  A
C1195     Br1210   1.935   1_565  S
C1196      C1199   1.490       .  S
C1196      C1197   1.412       .  A
C1197      C1198   1.414       .  A
C1197     Br1205   1.928       .  S
C1198     Br1209   1.929       .  S
C1199      C1200   1.409       .  A
C1199      C1204   1.410       .  A
C1200      C1201   1.409   1_565  A
C1200     Br1211   1.931       .  S
C1201      C1202   1.414       .  A
C1201     Br1207   1.928       .  S
C1202      C1203   1.416       .  A
C1203      C1204   1.410   1_545  A
C1203     Br1212   1.932       .  S
C1204     Br1208   1.931       .  S
C1213      C1214   1.414       .  A
C1213      C1218   1.410       .  A
C1214      C1215   1.412       .  A
C1214     Br1226   1.931       .  S
C1215      C1216   1.410   1_565  A
C1215     Br1230   1.928       .  S
C1216      C1219   1.490       .  S
C1216      C1217   1.408   1_545  A
C1217      C1218   1.407       .  A
C1217     Br1225   1.930   1_565  S
C1218     Br1229   1.923       .  S
C1219      C1220   1.404   1_545  A
C1219      C1224   1.410       .  A
C1220      C1221   1.407   1_565  A
C1220     Br1231   1.935       .  S
C1221      C1222   1.421       .  A
C1221     Br1227   1.931   1_445  S
C1222      C1223   1.417       .  A
C1223      C1224   1.415       .  A
C1223     Br1232   1.930       .  S
C1224     Br1228   1.929       .  S
C1233      C1234   1.417       .  A
C1233      C1238   1.413       .  A
C1234      C1235   1.413       .  A
C1234     Br1246   1.930       .  S
C1235      C1236   1.410       .  A
C1235     Br1250   1.930   1_565  S
C1236      C1239   1.503   1_565  S
C1236      C1237   1.413       .  A
C1237      C1238   1.416       .  A
C1237     Br1245   1.928       .  S
C1238     Br1249   1.929       .  S
C1239      C1240   1.414       .  A
C1239      C1244   1.402   1_545  A
C1240      C1241   1.423       .  A
C1240     Br1251   1.926       .  S
C1241      C1242   1.418       .  A
C1241     Br1247   1.927       .  S
C1242      C1243   1.430       .  A
C1243      C1244   1.409   1_545  A
C1243     Br1252   1.934   1_545  S
C1244     Br1248   1.937       .  S
C1253      C1254   1.414       .  A
C1253      C1258   1.411       .  A
C1254      C1255   1.415       .  A
C1254     Br1266   1.924       .  S
C1255      C1256   1.412       .  A
C1255     Br1270   1.932       .  S
C1256      C1259   1.507       .  S
C1256      C1257   1.413       .  A
C1257      C1258   1.418       .  A
C1257     Br1265   1.926       .  S
C1258     Br1269   1.926       .  S
C1259      C1260   1.414       .  A
C1259      C1264   1.414       .  A
C1260      C1261   1.415       .  A
C1260     Br1271   1.929       .  S
C1261      C1262   1.411       .  A
C1261     Br1267   1.927       .  S
C1262      C1263   1.409       .  A
C1263      C1264   1.416       .  A
C1263     Br1272   1.929       .  S
C1264     Br1268   1.926       .  S
C1273      C1274   1.429       .  A
C1273      C1278   1.429       .  A
C1274      C1275   1.418       .  A
C1274     Br1286   1.936       .  S
C1275      C1276   1.408       .  A
C1275     Br1290   1.933       .  S
C1276      C1279   1.506       .  S
C1276      C1277   1.407       .  A
C1277      C1278   1.418       .  A
C1277     Br1285   1.932       .  S
C1278     Br1289   1.930       .  S
C1279      C1280   1.410       .  A
C1279      C1284   1.412       .  A
C1280      C1281   1.415       .  A
C1280     Br1291   1.932       .  S
C1281      C1282   1.417       .  A
C1281     Br1287   1.922       .  S
C1282      C1283   1.413       .  A
C1283      C1284   1.417       .  A
C1283     Br1292   1.926       .  S
C1284     Br1288   1.927       .  S
C1293      C1294   1.421       .  A
C1293      C1298   1.411       .  A
C1294      C1295   1.393       .  A
C1294     Br1306   1.933       .  S
C1295      C1296   1.399       .  A
C1295     Br1310   1.939       .  S
C1296      C1299   1.454       .  S
C1296      C1297   1.404       .  A
C1297      C1298   1.399       .  A
C1297     Br1305   1.929   1_565  S
C1298     Br1309   1.930   1_565  S
C1299      C1300   1.402       .  A
C1299      C1304   1.408       .  A
C1300      C1301   1.393       .  A
C1300     Br1311   1.935       .  S
C1301      C1302   1.410   1_565  A
C1301     Br1307   1.928       .  S
C1302      C1303   1.402       .  A
C1303      C1304   1.398   1_545  A
C1303     Br1312   1.928       .  S
C1304     Br1308   1.931   1_565  S
