geometry optimzed in LAMMPS
_audit_creation_date              2020-12-01 
_audit_creation_method            'lammps2cif' 
_symmetry_space_group_name_H-M    'P1' 
_symmetry_Int_Tables_number       1 
_symmetry_cell_setting            triclinic 
loop_ 
_symmetry_equiv_pos_as_xyz 
  x,y,z 
_cell_length_a                    29.11059953 
_cell_length_b                    44.9012977604394 
_cell_length_c                    29.411051994361706 
_cell_angle_alpha                 90.04835953651107 
_cell_angle_beta                  108.3950666229873 
_cell_angle_gamma                 89.93105232443725 
loop_ 
_atom_site_label 
_atom_site_type_symbol 
_atom_site_fract_x 
_atom_site_fract_y 
_atom_site_fract_z 
_atom_site_charge 
O1          O  0.82525532  0.95803444  0.98450088    -0.82100
C2          C  0.66464931  0.89101082  0.87401357     0.97300
O3          O  0.70741285  0.88759236  0.87252685    -0.71200
O4          O  0.74733707  0.93640179  0.85624526    -0.74800
Al5        Al  0.76725706  0.90799489  0.90594883     1.49000
C6          C  0.75494619  0.96400714  0.85843568     0.92500
O7          O  0.69289279  0.98024819  0.93603105    -0.81000
O8          O  0.74052519  0.91760661  0.03393824    -0.74600
Al9        Al  0.75855619  0.96664828  0.95943373     1.90100
O10         O  0.66392051  0.94504031  0.97068065    -0.73600
O11         O  0.72754153  0.87232415  0.97505627    -0.73500
O12         O  0.65697296  0.90286402  0.90968978    -0.79100
O13         O  0.79037142  0.87513547  0.94984612    -0.77300
O14         O  0.74266752  0.92843092  0.94522395    -1.13500
O15         O  0.83120434  0.92620434  0.92973213    -0.72700
C16         C  0.85010358  0.94543948  0.96193921     0.98100
C17         C  0.65952152  0.96995014  0.95028076     0.94400
Al18       Al  0.70112665  0.91089664  0.97014326     1.55600
O19         O  0.76436966  0.97737652  0.89810185    -0.77300
C20         C  0.76495964  0.86075155  0.97017830     0.98600
C21         C  0.75261076  0.94328608  0.05079456     0.93500
O22         O  0.75663635  0.96450819  0.02404465    -0.82600
O23         O  0.76258017  0.54160859  0.96658931    -0.82100
C24         C  0.84555102  0.61117046  0.12870791     0.97300
O25         O  0.84412931  0.61970188  0.08709730    -0.71200
O26         O  0.87759161  0.57606189  0.05029358    -0.74800
Al27       Al  0.82075798  0.59828612  0.02703750     1.49000
C28         C  0.88392786  0.54919845  0.04228361     0.92500
O29         O  0.80290935  0.52170593  0.09945032    -0.81000
O30         O  0.68979595  0.57534210  0.03896938    -0.74600
Al31       Al  0.78300886  0.53448109  0.03337895     1.90100
O32         O  0.75120850  0.55029906  0.11875984    -0.73600
O33         O  0.74515685  0.62761575  0.06323388    -0.73500
O34         O  0.81093875  0.59604328  0.13425528    -0.79100
O35         O  0.76838179  0.62475270  0.00007220    -0.77300
O36         O  0.78507693  0.57296755  0.04804226    -1.13500
O37         O  0.80627245  0.58094321  0.96437033    -0.72700
C38         C  0.78078681  0.55914086  0.94350670     0.98100
C39         C  0.77673153  0.52706782  0.12559821     0.94400
Al40       Al  0.75173619  0.58645872  0.08543184     1.55600
O41         O  0.84924646  0.53097150  0.03423302    -0.77300
C42         C  0.75176755  0.63991081  0.02715864     0.98600
C43         C  0.68124442  0.54829201  0.02490186     0.93500
O44         O  0.71600680  0.53064104  0.02737235    -0.82600
O45         O  0.19622669  0.96508334  0.49510233    -0.82100
C46         C  0.35404549  0.89574299  0.60528459     0.97300
O47         O  0.31230234  0.89543835  0.61009817    -0.71200
O48         O  0.27557916  0.94593146  0.62352091    -0.74800
Al49       Al  0.25301100  0.91599223  0.57669648     1.49000
C50         C  0.26813364  0.97348012  0.61907383     0.92500
O51         O  0.33072715  0.98259382  0.53986634    -0.81000
O52         O  0.27284838  0.91997295  0.44348023    -0.74600
Al53       Al  0.26371084  0.97176208  0.51799328     1.90100
O54         O  0.35425873  0.94539031  0.50411946    -0.73600
O55         O  0.28435559  0.87596758  0.50534090    -0.73500
O56         O  0.36011403  0.90437898  0.56687745    -0.79100
O57         O  0.22703166  0.88171985  0.53776455    -0.77300
O58         O  0.27655234  0.93342457  0.53395328    -1.13500
O59         O  0.18999004  0.93510704  0.55225621    -0.72700
C60         C  0.17139603  0.95380028  0.51900535     0.98100
C61         C  0.36238082  0.97013788  0.52522399     0.94400
Al62       Al  0.31423502  0.91310435  0.50724418     1.55600
O63         O  0.25940663  0.98538370  0.57847723    -0.77300
C64         C  0.24907738  0.86570814  0.51603105     0.98600
C65         C  0.26355455  0.94577769  0.42584293     0.93500
O66         O  0.26404889  0.96774099  0.45295103    -0.82600
O67         O  0.27917569  0.54494145  0.53984999    -0.82100
C68         C  0.17455730  0.61380490  0.38246521     0.97300
O69         O  0.17936327  0.62107140  0.42531022    -0.71200
O70         O  0.15446985  0.57327432  0.45909174    -0.74800
Al71       Al  0.20810943  0.59827363  0.48254564     1.49000
C72         C  0.15381359  0.54619465  0.46894716     0.92500
O73         O  0.23187624  0.52482940  0.40661852    -0.81000
O74         O  0.33797349  0.58371882  0.45922922    -0.74600
Al75       Al  0.25469530  0.53761976  0.47265461     1.90100
O76         O  0.27323210  0.55791220  0.38125553    -0.73600
O77         O  0.27613382  0.63271065  0.44315493    -0.73500
O78         O  0.20901975  0.60066871  0.37285165    -0.79100
O79         O  0.25749064  0.62685181  0.50883190    -0.77300
O80         O  0.24538435  0.57608891  0.45813531    -1.13500
O81         O  0.22717589  0.57929688  0.54411269    -0.72700
C82         C  0.25781437  0.55948657  0.56396710     0.98100
C83         C  0.25047605  0.53365393  0.37546698     0.94400
Al84       Al  0.27229274  0.59263893  0.41769574     1.55600
O85         O  0.19135019  0.53028067  0.47716901    -0.77300
C86         C  0.27056019  0.64350280  0.48082689     0.98600
C87         C  0.35119364  0.55723813  0.47365261     0.93500
O88         O  0.31996112  0.53753865  0.47300377    -0.82600
O89         O  0.69565853  0.46169477  0.50456905    -0.82100
C90         C  0.85742890  0.39411480  0.61307588     0.97300
O91         O  0.81538289  0.39194522  0.61712107    -0.71200
O92         O  0.78011184  0.44269631  0.63241800    -0.74800
Al93       Al  0.75540113  0.41319296  0.58543157     1.49000
C94         C  0.77308112  0.47030421  0.62871843     0.92500
O95         O  0.82906215  0.48114423  0.54684003    -0.81000
O96         O  0.77289724  0.41761387  0.45170071    -0.74600
Al97       Al  0.76279830  0.46925283  0.52644997     1.90100
O98         O  0.85333115  0.44463058  0.51045285    -0.73600
O99         O  0.78739494  0.37382129  0.51448283    -0.73500
O100        O  0.86259292  0.40415961  0.57498277    -0.79100
O101        O  0.72850813  0.37959786  0.54514774    -0.77300
O102        O  0.77740240  0.43115845  0.54223161    -1.13500
O103        O  0.69163587  0.43277382  0.56356424    -0.72700
C104        C  0.67181244  0.45099388  0.52978671     0.98100
C105        C  0.86050403  0.46954834  0.53103582     0.94400
Al106      Al  0.81546686  0.41158385  0.51524157     1.55600
O107        O  0.76011078  0.48242435  0.58794960    -0.77300
C108        C  0.75145980  0.36363854  0.52414300     0.98600
C109        C  0.76297200  0.44340902  0.43416412     0.93500
O110        O  0.76207106  0.46517637  0.46127414    -0.82600
O111        O  0.77811783  0.04366435  0.52178587    -0.82100
C112        C  0.67441919  0.11370245  0.36604236     0.97300
O113        O  0.67497365  0.11888227  0.40852478    -0.71200
O114        O  0.65108432  0.06915516  0.43917843    -0.74800
Al115      Al  0.70319257  0.09548015  0.46526536     1.49000
C116        C  0.65258718  0.04216245  0.45043159     0.92500
O117        O  0.73043762  0.02621913  0.38887868    -0.81000
O118        O  0.83665184  0.08462132  0.44695982    -0.74600
Al119      Al  0.75382970  0.03697947  0.45491203     1.90100
O120        O  0.77346284  0.05960902  0.36583040    -0.73600
O121        O  0.77472556  0.13329143  0.43276653    -0.73500
O122        O  0.71094027  0.10226710  0.35831060    -0.79100
O123        O  0.74982320  0.12455103  0.49398153    -0.77300
O124        O  0.74329574  0.07545978  0.44195082    -1.13500
O125        O  0.72244433  0.07541634  0.52642569    -0.72700
C126        C  0.75486502  0.05638414  0.54599169     0.98100
C127        C  0.74901839  0.03580013  0.35825658     0.94400
Al128      Al  0.77203619  0.09371134  0.40433396     1.55600
O129        O  0.69156977  0.02772635  0.45983860    -0.77300
C130        C  0.76521429  0.14257045  0.46952177     0.98600
C131        C  0.84989784  0.05783270  0.45847422     0.93500
O132        O  0.81879382  0.03761607  0.45486702    -0.82600
O133        O  0.23991702  0.04447782  0.95065727    -0.82100
C134        C  0.34625858  0.10607974  0.11655236     0.97300
O135        O  0.34225204  0.11430854  0.07435151    -0.71200
O136        O  0.36672496  0.06881317  0.03338586    -0.74800
Al137      Al  0.31296260  0.09457737  0.01451104     1.49000
C138        C  0.36638507  0.04253201  0.01884250     0.92500
O139        O  0.29045961  0.01713834  0.08026233    -0.81000
O140        O  0.18363282  0.07689741  0.03765214    -0.74600
Al141      Al  0.26597862  0.03325767  0.01625167     1.90100
O142        O  0.24880054  0.04749669  0.11070960    -0.73600
O143        O  0.24502124  0.12608162  0.05877620    -0.74300
O144        O  0.31244519  0.09142141  0.12462787    -0.79100
O145        O  0.26410574  0.12372197  0.99295426    -0.77300
O146        O  0.27584860  0.07075283  0.03628319    -1.13500
O147        O  0.29238154  0.07934375  0.95044318    -0.72700
C148        C  0.26042777  0.06092735  0.92808755     0.98100
C149        C  0.27078655  0.02315916  0.11191201     0.94400
Al150      Al  0.24938613  0.08455993  0.07924220     1.55600
O151        O  0.32841230  0.02698542  0.00884520    -0.77300
C152        C  0.25069193  0.13882453  0.02247487     0.98600
C153        C  0.17035327  0.05090103  0.02096558     0.93500
O154        O  0.20131751  0.03199145  0.01748860    -0.82600
O155        O  0.33959834  0.45443971  0.00305871    -0.82100
C156        C  0.16717008  0.39869551  0.88997785     0.97300
O157        O  0.20901292  0.39189888  0.88828526    -0.71200
O158        O  0.25303902  0.44034447  0.87368980    -0.74800
Al159      Al  0.27210167  0.41024929  0.92076514     1.49000
C160        C  0.26632492  0.46716443  0.87824497     0.92500
O161        O  0.21232089  0.48555870  0.96066620    -0.81000
O162        O  0.25023899  0.41837843  0.05170919    -0.74600
Al163      Al  0.27498425  0.46761301  0.98074093     1.90100
O164        O  0.17773607  0.45183191  0.99280819    -0.73600
O165        O  0.22929281  0.37537024  0.98684648    -0.73500
O166        O  0.16267733  0.41183993  0.92618977    -0.79100
O167        O  0.29297740  0.37635123  0.96258430    -0.77300
O168        O  0.25230358  0.43106047  0.96310183    -1.13500
O169        O  0.33877965  0.42580022  0.94246127    -0.72700
C170        C  0.36151085  0.44286157  0.97680188     0.98100
C171        C  0.17844275  0.47751700  0.97599352     0.94400
Al172      Al  0.20885214  0.41551401  0.98724803     1.55600
O173        O  0.28079054  0.47907222  0.91932744    -0.77300
C174        C  0.26525149  0.36230318  0.98069091     0.98600
C175        C  0.26730356  0.44280765  0.07114949     0.93500
O176        O  0.27438346  0.46413971  0.04596267    -0.82600
C177        C  0.29789473  0.27952800  0.98128119    -0.27900
C178        C  0.26750268  0.26716549  0.00533241     0.01700
C179        C  0.24062022  0.28658695  0.02476960     0.29800
C180        C  0.24301971  0.31737086  0.01887005    -0.19700
C181        C  0.27146772  0.32990185  0.99291485    -0.29100
C182        C  0.30014667  0.31059496  0.97512987     0.43900
C183        C  0.26248554  0.23417759  0.00919136     0.05000
O184        O  0.21015019  0.27565751  0.04806429    -0.57600
H185        H  0.22076849  0.33145543  0.03335550     0.18000
O186        O  0.32851427  0.32156277  0.94963463    -0.64300
H187        H  0.31949259  0.26503054  0.96666381     0.16400
C188        C  0.24936741  0.21576598  0.96825537     0.28700
C189        C  0.24279098  0.18501296  0.97269609    -0.25200
C190        C  0.24893965  0.17189333  0.01768232    -0.24500
C191        C  0.26166924  0.19042949  0.05859354     0.40100
C192        C  0.26847828  0.22110374  0.05412657    -0.26900
O193        O  0.24146316  0.22775337  0.92354953    -0.58800
H194        H  0.23364618  0.17126465  0.94079667     0.15800
O195        O  0.27088330  0.17858894  0.10356560    -0.60300
H196        H  0.27917783  0.23474106  0.08616157     0.14200
H197        H  0.36057912  0.32517678  0.97378732     0.46100
H198        H  0.27072442  0.22271589  0.91470852     0.41400
H199        H  0.23985517  0.18018737  0.11065761     0.44900
H200        H  0.17917312  0.27166298  0.02248168     0.36400
C201        C  0.44826655  0.10692548  0.23637572    -0.27900
C202        C  0.48580503  0.12003670  0.22289618     0.01700
C203        C  0.47605717  0.13057355  0.17589137     0.29800
C204        C  0.42994140  0.12703219  0.14266722    -0.19700
C205        C  0.39244304  0.11280723  0.15519127    -0.29100
C206        C  0.40189650  0.10307185  0.20292897     0.43900
C207        C  0.53554905  0.12130948  0.25737423     0.05000
O208        O  0.51171850  0.14389127  0.16178015    -0.57600
H209        H  0.42408941  0.13481899  0.10642517     0.18000
O210        O  0.36621107  0.08988207  0.21723844    -0.64300
H211        H  0.45534876  0.09877943  0.27261491     0.16400
C212        C  0.54569511  0.13754682  0.30027409     0.28700
C213        C  0.59210753  0.13653560  0.33399002    -0.25200
C214        C  0.62904809  0.11912663  0.32593723    -0.24500
C215        C  0.61912807  0.10369108  0.28196205     0.40100
C216        C  0.57283329  0.10508099  0.24806520    -0.26900
O217        O  0.51046961  0.15460090  0.30938620    -0.58800
H218        H  0.59868838  0.14865707  0.36730253     0.15800
O219        O  0.65353269  0.08601683  0.27254040    -0.60300
H220        H  0.56544923  0.09243002  0.21514042     0.14200
H221        H  0.37838639  0.06971561  0.22858602     0.46100
H222        H  0.49766764  0.14225281  0.33060368     0.41400
H223        H  0.64903326  0.06597938  0.28467946     0.44900
H224        H  0.51037912  0.16526962  0.16976779     0.36400
C225        C  0.94425598  0.37898103  0.73891467    -0.27900
C226        C  0.98948522  0.38097884  0.73123376     0.01700
C227        C  0.99059169  0.38395812  0.68400170     0.29800
C228        C  0.94727837  0.38637682  0.64581059    -0.19700
C229        C  0.90184711  0.38616208  0.65353367    -0.29100
C230        C  0.90077845  0.38132068  0.70066626     0.43900
C231        C  0.03476506  0.38394442  0.77276358     0.05000
O232        O  0.03390747  0.38621250  0.67499702    -0.57600
H233        H  0.94952338  0.38966804  0.61010862     0.18000
O234        O  0.85773295  0.38063669  0.71039881    -0.64300
H235        H  0.94268818  0.37668324  0.77506568     0.16400
C236        C  0.03974578  0.40792127  0.80472075     0.28700
C237        C  0.08265669  0.41173285  0.84256194    -0.25200
C238        C  0.12232345  0.39248800  0.84930876    -0.24500
C239        C  0.11751310  0.36823273  0.81759395     0.40100
C240        C  0.07402085  0.36416816  0.77951912    -0.26900
O241        O  0.00313785  0.42830500  0.79859362    -0.58800
H242        H  0.08520155  0.43033954  0.86638521     0.15800
O243        O  0.15452753  0.34816588  0.82383290    -0.60300
H244        H  0.07085876  0.34553745  0.75530579     0.14200
H245        H  0.84758563  0.35946041  0.70673490     0.46100
H246        H  0.00955508  0.44392245  0.77754450     0.41400
H247        H  0.15046462  0.33367565  0.84771251     0.44900
H248        H  0.04138609  0.40781167  0.67679972     0.36400
C249        C  0.72853778  0.21721180  0.50865518    -0.27900
C250        C  0.75555770  0.23747005  0.49136712     0.01700
C251        C  0.78862229  0.22627033  0.46918067     0.29800
C252        C  0.79303587  0.19528986  0.46356802    -0.19700
C253        C  0.76542576  0.17503819  0.48053759    -0.29100
C254        C  0.73324201  0.18650259  0.50367340     0.43900
C255        C  0.74914647  0.27002894  0.49806971     0.05000
O256        O  0.81806754  0.24534373  0.45466291    -0.57600
H257        H  0.81792651  0.18712581  0.44572868     0.18000
O258        O  0.70363456  0.16802175  0.51897202    -0.64300
H259        H  0.70274177  0.22529268  0.52549359     0.16400
C260        C  0.73876029  0.29027263  0.45947210     0.28700
C261        C  0.73550505  0.32088676  0.46767226    -0.25200
C262        C  0.74054912  0.33179488  0.51377300    -0.24500
C263        C  0.74785603  0.31146461  0.55177356     0.40100
C264        C  0.75223982  0.28093442  0.54383040    -0.26900
O265        O  0.73241811  0.28048084  0.41373520    -0.58800
H266        H  0.73071539  0.33631778  0.43821165     0.15800
O267        O  0.75563956  0.32144809  0.59767578    -0.60300
H268        H  0.75990520  0.26579752  0.57398314     0.14200
H269        H  0.72111705  0.16434395  0.55334580     0.46100
H270        H  0.69745017  0.27575047  0.40037142     0.41400
H271        H  0.72291835  0.32364468  0.60090518     0.44900
H272        H  0.80753677  0.24386666  0.41921107     0.36400
C273        C  0.55123370  0.49024895  0.47261553    -0.27900
C274        C  0.53850225  0.49899973  0.51301409     0.01700
C275        C  0.56783813  0.48893385  0.55856550     0.29800
C276        C  0.60875720  0.47102642  0.56301585    -0.19700
C277        C  0.62238334  0.46329921  0.52277440    -0.29100
C278        C  0.59272425  0.47287851  0.47722043     0.43900
C279        C  0.49348245  0.51722556  0.50704489     0.05000
O280        O  0.55801121  0.49739865  0.59935135    -0.57600
H281        H  0.63164359  0.46474655  0.59851462     0.18000
O282        O  0.60462626  0.46596777  0.43690230    -0.64300
H283        H  0.52890251  0.49690093  0.43712956     0.16400
C284        C  0.48155193  0.54258408  0.47682193     0.28700
C285        C  0.43653804  0.55715714  0.46842821    -0.25200
C286        C  0.40280633  0.54701179  0.49011105    -0.24500
C287        C  0.41628388  0.52285942  0.52261561     0.40100
C288        C  0.46067125  0.50827560  0.53047221    -0.26900
O289        O  0.51312213  0.55297290  0.45443489    -0.58800
H290        H  0.42715178  0.57547169  0.44321914     0.15800
O291        O  0.38575797  0.51292311  0.54662680    -0.60300
H292        H  0.46843016  0.48896464  0.55370536     0.14200
H293        H  0.58653066  0.44744435  0.42434836     0.46100
H294        H  0.53615249  0.56582345  0.47847669     0.41400
H295        H  0.37151368  0.49418495  0.53032315     0.44900
H296        H  0.57523128  0.51657631  0.60893071     0.36400
C297        C  0.02402273  0.53467139  0.46321593    -0.27900
C298        C  0.03053240  0.52167214  0.50824020     0.01700
C299        C  0.07773705  0.51595748  0.53888732     0.29800
C300        C  0.11739772  0.52191253  0.52356531    -0.19700
C301        C  0.11092701  0.53476486  0.47861498    -0.29100
C302        C  0.06402555  0.54169448  0.44864355     0.43900
C303        C  0.98838315  0.51037715  0.52047357     0.05000
O304        O  0.08541281  0.50452432  0.58393821    -0.57600
H305        H  0.15352726  0.51785307  0.54788509     0.18000
O306        O  0.05706158  0.55549452  0.40538387    -0.64300
H307        H  0.98794814  0.53880212  0.43895800     0.16400
C308        C  0.94757073  0.52817223  0.51743360     0.28700
C309        C  0.90661567  0.51525704  0.52481944    -0.25200
C310        C  0.90595363  0.48466826  0.53419928    -0.24500
C311        C  0.94768098  0.46738174  0.53936604     0.40100
C312        C  0.98827576  0.48025307  0.53251783    -0.26900
O313        O  0.94750025  0.55799849  0.50730662    -0.58800
H314        H  0.87460471  0.52871547  0.52054003     0.15800
O315        O  0.94881551  0.43762294  0.55037812    -0.60300
H316        H  0.01918792  0.46620733  0.53463501     0.14200
H317        H  0.05537107  0.53913521  0.38224540     0.46100
H318        H  0.92590687  0.56011838  0.47381116     0.41400
H319        H  0.94502046  0.42697888  0.51984341     0.44900
H320        H  0.08347356  0.52187278  0.60415306     0.36400
C321        C  0.29927691  0.52200665  0.79445352    -0.27900
C322        C  0.26767977  0.51304854  0.74981208     0.01700
C323        C  0.23544632  0.48939132  0.74776937     0.29800
C324        C  0.23505601  0.47504785  0.78990522    -0.19700
C325        C  0.26609660  0.48413514  0.83483210    -0.29100
C326        C  0.29841525  0.50792371  0.83684738     0.43900
C327        C  0.26822731  0.52823578  0.70519461     0.05000
O328        O  0.20575333  0.47928270  0.70440042    -0.57600
H329        H  0.21038015  0.45660321  0.78730530     0.18000
O330        O  0.33098346  0.51656964  0.87965011    -0.64300
H331        H  0.32460464  0.53999549  0.79640930     0.16400
C332        C  0.22788553  0.54476376  0.67798193     0.28700
C333        C  0.22658960  0.55645279  0.63345872    -0.25200
C334        C  0.26478324  0.55140106  0.61469614    -0.24500
C335        C  0.30619179  0.53594135  0.64303668     0.40100
C336        C  0.30774770  0.52461220  0.68801670    -0.26900
O337        O  0.18950073  0.54950843  0.69474181    -0.58800
H338        H  0.19435663  0.56823792  0.61252679     0.15800
O339        O  0.34474122  0.53103047  0.62667260    -0.60300
H340        H  0.33913209  0.51202758  0.70877341     0.14200
H341        H  0.31581003  0.53391945  0.89019328     0.46100
H342        H  0.16264965  0.53726114  0.67407167     0.41400
H343        H  0.36436508  0.54948518  0.63441941     0.44900
H344        H  0.17245088  0.48478497  0.70342923     0.36400
C345        C  0.30507285  0.47891988  0.19380996    -0.27900
C346        C  0.26928747  0.46822108  0.21243500     0.01700
C347        C  0.23782184  0.44566560  0.18738100     0.29800
C348        C  0.24035083  0.43563250  0.14296097    -0.19700
C349        C  0.27376800  0.44799347  0.12266004    -0.29100
C350        C  0.30754847  0.46895938  0.14946271     0.43900
C351        C  0.26123307  0.48371797  0.25409910     0.05000
O352        O  0.20136261  0.43551583  0.20355895    -0.57600
H353        H  0.21362764  0.41978096  0.12274010     0.18000
O354        O  0.34156886  0.48101685  0.13156941    -0.64300
H355        H  0.32984820  0.49611218  0.21279969     0.16400
C356        C  0.26247893  0.46880672  0.29672576     0.28700
C357        C  0.25553350  0.48481582  0.33528702    -0.25200
C358        C  0.24848085  0.51582660  0.33234072    -0.24500
C359        C  0.24668295  0.53048239  0.28935976     0.40100
C360        C  0.25249729  0.51445682  0.25080000    -0.26900
O361        O  0.27229312  0.43890120  0.30177217    -0.58800
H362        H  0.25826437  0.47325709  0.36835721     0.15800
O363        O  0.23919061  0.56064910  0.28463136    -0.60300
H364        H  0.25082748  0.52625797  0.21817889     0.14200
H365        H  0.36815724  0.46617355  0.13877038     0.46100
H366        H  0.30811678  0.43740710  0.31251189     0.41400
H367        H  0.27156576  0.56942664  0.28904565     0.44900
H368        H  0.21166629  0.41532574  0.21642572     0.36400
C369        C  0.28190242  0.72171688  0.53394929    -0.27900
C370        C  0.25145751  0.73796539  0.49494174     0.01700
C371        C  0.22938438  0.72270283  0.45154319     0.29800
C372        C  0.23896017  0.69248096  0.44720502    -0.19700
C373        C  0.26867260  0.67624090  0.48620712    -0.29100
C374        C  0.28944816  0.69093941  0.53015976     0.43900
C375        C  0.24440030  0.77086312  0.49863973     0.05000
O376        O  0.19730155  0.73691988  0.41329600    -0.57600
H377        H  0.22100153  0.68128002  0.41362663     0.18000
O378        O  0.31809356  0.67562562  0.56914916    -0.64300
H379        H  0.30013252  0.73286460  0.56742099     0.16400
C380        C  0.23460404  0.78392755  0.53838467     0.28700
C381        C  0.23109476  0.81512328  0.54159520    -0.25200
C382        C  0.23777005  0.83373385  0.50585022    -0.24500
C383        C  0.24484529  0.82058930  0.46502448     0.40100
C384        C  0.24859043  0.78965452  0.46192722    -0.26900
O385        O  0.22830957  0.76642784  0.57417295    -0.58800
H386        H  0.22624432  0.82479248  0.57354124     0.15800
O387        O  0.25088452  0.83794068  0.42895334    -0.60300
H388        H  0.25668388  0.78042059  0.43128202     0.14200
H389        H  0.29627452  0.67004160  0.58770879     0.46100
H390        H  0.25747779  0.76974571  0.60230215     0.41400
H391        H  0.21767336  0.84360679  0.40909671     0.44900
H392        H  0.16552399  0.73547071  0.41890031     0.36400
C393        C  0.21308853  0.02842413  0.80279587    -0.27900
C394        C  0.24943142  0.03745550  0.78378543     0.01700
C395        C  0.28404006  0.05832225  0.80905328     0.29800
C396        C  0.28445677  0.06793490  0.85449395    -0.19700
C397        C  0.25100267  0.05662926  0.87578937    -0.29100
C398        C  0.21342067  0.03800349  0.84826175     0.43900
C399        C  0.25509800  0.02181073  0.74146839     0.05000
O400        O  0.31966223  0.06782734  0.79113459    -0.57600
H401        H  0.31339103  0.08255493  0.87445412     0.18000
O402        O  0.17847159  0.02759761  0.86637565    -0.64300
H403        H  0.18576529  0.01268406  0.78327784     0.16400
C404        C  0.26747071  0.99144416  0.74479743     0.28700
C405        C  0.27346758  0.97649158  0.70534826    -0.25200
C406        C  0.26678016  0.99122220  0.66150899    -0.24500
C407        C  0.25527647  0.02195718  0.65854714     0.40100
C408        C  0.24970624  0.03699573  0.69842756    -0.26900
O409        O  0.27497850  0.97633811  0.78706495    -0.58800
H410        H  0.28254089  0.95302192  0.70904202     0.15800
O411        O  0.24803783  0.03739316  0.61665913    -0.60300
H412        H  0.24054244  0.06046328  0.69558219     0.14200
H413        H  0.15387143  0.04367468  0.86018395     0.46100
H414        H  0.24399459  0.96600666  0.78375278     0.41400
H415        H  0.28052663  0.04475341  0.61792261     0.44900
H416        H  0.34698687  0.05379862  0.80426090     0.36400
C417        C  0.23703153  0.98452782  0.30520793    -0.27900
C418        C  0.25805646  0.96481295  0.28042587     0.01700
C419        C  0.27635350  0.93742727  0.30178029     0.29800
C420        C  0.27530476  0.93064022  0.34808607    -0.19700
C421        C  0.25651982  0.95106268  0.37406328    -0.29100
C422        C  0.23641749  0.97800277  0.35161318     0.43900
C423        C  0.26221542  0.97398819  0.23330439     0.05000
O424        O  0.29634224  0.91745294  0.27813938    -0.57600
H425        H  0.29115367  0.90987390  0.36445167     0.18000
O426        O  0.21623279  0.99823740  0.37473244    -0.64300
H427        H  0.22246170  0.00562219  0.28909628     0.16400
C428        C  0.22045492  0.97974707  0.19436282     0.28700
C429        C  0.22443707  0.99358534  0.15311414    -0.25200
C430        C  0.26979936  0.00178837  0.14974581    -0.24500
C431        C  0.31187633  0.99419258  0.18723792     0.40100
C432        C  0.30790737  0.98036225  0.22875675    -0.26900
O433        O  0.17553421  0.97243040  0.19678236    -0.58800
H434        H  0.19171612  0.99926994  0.12446061     0.15800
O435        O  0.35675326  0.00157167  0.18483131    -0.60300
H436        H  0.34039102  0.97608518  0.25849095     0.14200
H437        H  0.24141303  0.01368832  0.38721509     0.46100
H438        H  0.16166191  0.99133080  0.20410716     0.41400
H439        H  0.36014166  0.02321977  0.19143668     0.44900
H440        H  0.26859951  0.90591734  0.25734025     0.36400
C441        C  0.98099997  0.04347359  0.46492593    -0.27900
C442        C  0.99066333  0.01708650  0.49247403     0.01700
C443        C  0.95591647  0.00714967  0.51320428     0.29800
C444        C  0.91247803  0.02265949  0.50517442    -0.19700
C445        C  0.90128402  0.04784813  0.47519269    -0.29100
C446        C  0.93652729  0.05865462  0.45583635     0.43900
C447        C  0.03593340  0.99942777  0.49845363     0.05000
O448        O  0.96275643  0.98132551  0.53940958    -0.57600
H449        H  0.88600690  0.01380969  0.52051078     0.18000
O450        O  0.92708882  0.08297656  0.42615801    -0.64300
H451        H  0.00747741  0.05191146  0.44931470     0.16400
C452        C  0.05133303  0.99204960  0.45886950     0.28700
C453        C  0.09420743  0.97579312  0.46553969    -0.25200
C454        C  0.12185007  0.96567969  0.51121129    -0.24500
C455        C  0.10557438  0.97207741  0.55054009     0.40100
C456        C  0.06339351  0.98895770  0.54405073    -0.26900
O457        O  0.02487747  0.00067299  0.41342259    -0.58800
H458        H  0.10632249  0.97144000  0.43490910     0.15800
O459        O  0.13195848  0.96333144  0.59598762    -0.60300
H460        H  0.05280138  0.99450914  0.57518080     0.14200
H461        H  0.91172784  0.07485956  0.39350423     0.46100
H462        H  0.00005256  0.98494337  0.40167555     0.41400
H463        H  0.15454192  0.98001322  0.60921779     0.44900
H464        H  0.95092190  0.96519301  0.51552357     0.36400
C465        C  0.52469597  0.02677890  0.44837854    -0.27900
C466        C  0.53328526  0.01340718  0.49357801     0.01700
C467        C  0.58134901  0.00719448  0.52174102     0.29800
C468        C  0.61956949  0.01447453  0.50483464    -0.19700
C469        C  0.61098926  0.02901895  0.46078354    -0.29100
C470        C  0.56323651  0.03509488  0.43232594     0.43900
C471        C  0.49197423  0.00467797  0.50996036     0.05000
O472        O  0.59155361  0.99491244  0.56654588    -0.57600
H473        H  0.65633079  0.01048172  0.52775431     0.18000
O474        O  0.55396416  0.04966365  0.38938308    -0.64300
H475        H  0.48804849  0.03089363  0.42548128     0.16400
C476        C  0.45267348  0.02410856  0.50601078     0.28700
C477        C  0.41145252  0.01365752  0.51600417    -0.25200
C478        C  0.40919961  0.98401347  0.52983677    -0.24500
C479        C  0.45026596  0.96561434  0.53825971     0.40100
C480        C  0.49071840  0.97576116  0.52746433    -0.26900
O481        O  0.45417110  0.05315511  0.49205419    -0.58800
H482        H  0.38016329  0.02805381  0.50970672     0.15800
O483        O  0.44986034  0.93682721  0.55380184    -0.60300
H484        H  0.52024121  0.96036851  0.53062089     0.14200
H485        H  0.55473857  0.03398566  0.36586224     0.46100
H486        H  0.42998592  0.05459297  0.45965626     0.41400
H487        H  0.45773811  0.93831053  0.58908729     0.44900
H488        H  0.59414673  0.01204244  0.58852318     0.36400
C489        C  0.94563511  0.60433283  0.24899440    -0.27900
C490        C  0.98216317  0.62230849  0.24155514     0.01700
C491        C  0.97136436  0.63889761  0.19878676     0.29800
C492        C  0.92589400  0.63633853  0.16367151    -0.19700
C493        C  0.88988235  0.61742565  0.17011766    -0.29100
C494        C  0.90000930  0.60178766  0.21392515     0.43900
C495        C  0.03192033  0.62243446  0.27733302     0.05000
O496        O  0.00541651  0.65727345  0.19041106    -0.57600
H497        H  0.91938126  0.64864220  0.13056083     0.18000
O498        O  0.86642456  0.58299709  0.22229264    -0.64300
H499        H  0.95311015  0.59114479  0.28133882     0.16400
C500        C  0.03932245  0.62746369  0.32640461     0.28700
C501        C  0.08618439  0.62611946  0.35946323    -0.25200
C502        C  0.12674704  0.61915233  0.34496242    -0.24500
C503        C  0.11933900  0.61457562  0.29570111     0.40100
C504        C  0.07247453  0.61642514  0.26249019    -0.26900
O505        O  0.00104359  0.63430896  0.34232228    -0.58800
H506        H  0.09036706  0.62961753  0.39700728     0.15800
O507        O  0.15750758  0.60815974  0.27949321    -0.60300
H508        H  0.06767196  0.61222857  0.22499608     0.14200
H509        H  0.87317280  0.56316341  0.21091378     0.46100
H510        H  0.99579310  0.61631959  0.35961432     0.41400
H511        H  0.15484532  0.58652533  0.27240086     0.44900
H512        H  0.00263622  0.67631107  0.20645593     0.36400
C513        C  0.76893306  0.43605772  0.30657205    -0.27900
C514        C  0.76203937  0.46583251  0.29137658     0.01700
C515        C  0.75148503  0.48723495  0.32158929     0.29800
C516        C  0.74882527  0.47903823  0.36641916    -0.19700
C517        C  0.75731451  0.44950649  0.38287407    -0.29100
C518        C  0.76633183  0.42774358  0.35185375     0.43900
C519        C  0.76503792  0.47522202  0.24402048     0.05000
O520        O  0.74491898  0.51657234  0.30803441    -0.57600
H521        H  0.74186206  0.49632845  0.38911797     0.18000
O522        O  0.77452108  0.39858669  0.36592839    -0.64300
H523        H  0.77658058  0.41930583  0.28341762     0.16400
C524        C  0.80949244  0.47604110  0.23429932     0.28700
C525        C  0.81306099  0.49151235  0.19388201    -0.25200
C526        C  0.77250362  0.50617096  0.16305922    -0.24500
C527        C  0.72726859  0.50297943  0.17086071     0.40100
C528        C  0.72393081  0.48777050  0.21102106    -0.26900
O529        O  0.85033777  0.46396287  0.26606383    -0.58800
H530        H  0.84796467  0.49354629  0.18829371     0.15800
O531        O  0.68624339  0.51588253  0.14053514    -0.60300
H532        H  0.68943423  0.48705416  0.21777914     0.14200
H533        H  0.74194828  0.38937762  0.35735825     0.46100
H534        H  0.85182969  0.44331025  0.25464803     0.41400
H535        H  0.67466021  0.50188236  0.11320251     0.44900
H536        H  0.77788433  0.52531282  0.31793666     0.36400
C537        C  0.80359757  0.55545960  0.82292473    -0.27900
C538        C  0.77296587  0.53200626  0.80084091     0.01700
C539        C  0.74154755  0.51970541  0.82351385     0.29800
C540        C  0.74256504  0.52991024  0.86878355    -0.19700
C541        C  0.77478468  0.55252837  0.89234185    -0.29100
C542        C  0.80460325  0.56585889  0.86824202     0.43900
C543        C  0.77680151  0.51849148  0.75632841     0.05000
O544        O  0.71137306  0.49664207  0.80266806    -0.57600
H545        H  0.71919026  0.51927760  0.88618670     0.18000
O546        O  0.83723233  0.58762324  0.88979293    -0.64300
H547        H  0.82810220  0.56496254  0.80576193     0.16400
C548        C  0.75074808  0.52985484  0.71099602     0.28700
C549        C  0.75134709  0.51469487  0.66941990    -0.25200
C550        C  0.77783644  0.48811359  0.67250721    -0.24500
C551        C  0.80577333  0.47765713  0.71818555     0.40100
C552        C  0.80483149  0.49273887  0.75951729    -0.26900
O553        O  0.72273360  0.55488027  0.70707871    -0.58800
H554        H  0.72950852  0.52310719  0.63482630     0.15800
O555        O  0.83325071  0.45230045  0.72303509    -0.60300
H556        H  0.82529361  0.48395019  0.79434255     0.14200
H557        H  0.81944321  0.60665097  0.88042260     0.46100
H558        H  0.74396106  0.57164853  0.70462344     0.41400
H559        H  0.86387444  0.45875610  0.71803731     0.44900
H560        H  0.68147714  0.50626813  0.78179960     0.36400
C561        C  0.57923926  0.49173737  0.97855306    -0.27900
C562        C  0.54164783  0.50436466  0.99229457     0.01700
C563        C  0.54818160  0.53347668  0.01182042     0.29800
C564        C  0.59262127  0.54853891  0.01994263    -0.19700
C565        C  0.63125459  0.53514707  0.00847221    -0.29100
C566        C  0.62326920  0.50669980  0.98613100     0.43900
C567        C  0.49721210  0.48628443  0.98852749     0.05000
O568        O  0.51161967  0.54723311  0.02395167    -0.57600
H569        H  0.59738518  0.57024050  0.03688773     0.18000
O570        O  0.65855772  0.49293988  0.97183388    -0.64300
H571        H  0.57530107  0.46951871  0.96344901     0.16400
C572        C  0.47057287  0.47182938  0.94558011     0.28700
C573        C  0.42839592  0.45559466  0.94310976    -0.25200
C574        C  0.41205199  0.45312362  0.98315566    -0.24500
C575        C  0.44044693  0.46616076  0.02678653     0.40100
C576        C  0.48218369  0.48253817  0.02908331    -0.26900
O577        O  0.48353754  0.47516462  0.90489940    -0.58800
H578        H  0.40693830  0.44641022  0.90894146     0.15800
O579        O  0.42676626  0.46405021  0.06722599    -0.60300
H580        H  0.50282301  0.49257944  0.06285077     0.14200
H581        H  0.67308458  0.47781510  0.99683572     0.46100
H582        H  0.49718446  0.45563739  0.89991745     0.41400
H583        H  0.43874125  0.44434044  0.08120404     0.44900
H584        H  0.49112875  0.55674186  0.99397293     0.36400
C585        C  0.98391468  0.50440555  0.01647198    -0.27900
C586        C  0.01512668  0.52730687  0.01220956     0.01700
C587        C  0.00479636  0.55681251  0.02121439     0.29800
C588        C  0.96340168  0.56318270  0.03378693    -0.19700
C589        C  0.93120323  0.54045732  0.03712446    -0.29100
C590        C  0.94206694  0.51076784  0.02858292     0.43900
C591        C  0.05847983  0.51998347  0.99853597     0.05000
O592        O  0.03330993  0.57971690  0.01477737    -0.57600
H593        H  0.95557578  0.58631151  0.03889179     0.18000
O594        O  0.91207712  0.48785124  0.03164221    -0.64300
H595        H  0.99186024  0.48150883  0.00994713     0.16400
C596        C  0.10530396  0.52512346  0.03042402     0.28700
C597        C  0.14566979  0.51402537  0.01979902    -0.25200
C598        C  0.13983284  0.49795085  0.97751883    -0.24500
C599        C  0.09348481  0.49492537  0.94399219     0.40100
C600        C  0.05303670  0.50567950  0.95474164    -0.26900
O601        O  0.11174482  0.53906822  0.07349928    -0.58800
H602        H  0.18117307  0.51588737  0.04633408     0.15800
O603        O  0.08701137  0.47947866  0.90230241    -0.60300
H604        H  0.01721210  0.50185092  0.92972140     0.14200
H605        H  0.89125420  0.48416635  0.99823981     0.46100
H606        H  0.10975661  0.52301944  0.09594154     0.41400
H607        H  0.09670190  0.49342422  0.88084389     0.44900
H608        H  0.05049631  0.58731885  0.04738080     0.36400
C609        C  0.53779733  0.86749616  0.80232705    -0.27900
C610        C  0.53473929  0.87769316  0.75634825     0.01700
C611        C  0.57670201  0.88926715  0.74847203     0.29800
C612        C  0.62018923  0.89131676  0.78659648    -0.19700
C613        C  0.62233937  0.88254912  0.83297073    -0.29100
C614        C  0.58089672  0.87015660  0.84051471     0.43900
C615        C  0.48666133  0.87888037  0.71846347     0.05000
O616        O  0.57436175  0.90127120  0.70489871    -0.57600
H617        H  0.65133339  0.90171979  0.78053660     0.18000
O618        O  0.58206901  0.86090347  0.88532374    -0.64300
H619        H  0.50608145  0.85839911  0.80903489     0.16400
C620        C  0.47956196  0.86739933  0.67213133     0.28700
C621        C  0.43546414  0.87204497  0.63589536    -0.25200
C622        C  0.39718506  0.88711660  0.64544324    -0.24500
C623        C  0.40312044  0.89684416  0.69247773     0.40100
C624        C  0.44765537  0.89290018  0.72840395    -0.26900
O625        O  0.51565716  0.85198406  0.66167321    -0.58800
H626        H  0.43135922  0.86420868  0.59996858     0.15800
O627        O  0.36715072  0.91249674  0.70280881    -0.60300
H628        H  0.45232916  0.90190391  0.76377352     0.14200
H629        H  0.56711930  0.87733010  0.89834397     0.46100
H630        H  0.51276866  0.83121331  0.67190173     0.41400
H631        H  0.34837526  0.89736376  0.71397939     0.44900
H632        H  0.59448547  0.88809032  0.69177545     0.36400
C633        C  0.76082712  0.78816134  0.03428417    -0.27900
C634        C  0.77134669  0.76720458  0.00350490     0.01700
C635        C  0.78698047  0.77772042  0.96551834     0.29800
C636        C  0.78897710  0.80850881  0.95717620    -0.19700
C637        C  0.77545149  0.82933597  0.98626024    -0.29100
C638        C  0.76266440  0.81882618  0.02593184     0.43900
C639        C  0.76394502  0.73466993  0.01029101     0.05000
O640        O  0.79904124  0.75807944  0.93541414    -0.57600
H641        H  0.79837661  0.81601125  0.92624640     0.18000
O642        O  0.75101416  0.83846990  0.05639363    -0.64300
H643        H  0.74894346  0.78078247  0.06379352     0.16400
C644        C  0.78396967  0.72081486  0.05528964     0.28700
C645        C  0.77641837  0.69029143  0.06075363    -0.25200
C646        C  0.74951942  0.67282178  0.02178571    -0.24500
C647        C  0.72902520  0.68662685  0.97698960     0.40100
C648        C  0.73562716  0.71732750  0.97166921    -0.26900
O649        O  0.81379583  0.73644589  0.09329203    -0.58800
H650        H  0.79405493  0.67986804  0.09508560     0.15800
O651        O  0.70209088  0.67034264  0.93832279    -0.60300
H652        H  0.71889511  0.72757738  0.93704401     0.14200
H653        H  0.71518270  0.83804634  0.04731750     0.46100
H654        H  0.79516569  0.73893530  0.11605138     0.41400
H655        H  0.72474322  0.66511640  0.92047615     0.44900
H656        H  0.83346542  0.75295588  0.95176334     0.36400
C657        C  0.95456757  0.98475748  0.93753692    -0.27900
C658        C  0.98573958  0.99061433  0.98402813     0.01700
C659        C  0.97395251  0.97869832  0.02335779     0.29800
C660        C  0.93090256  0.96244830  0.01590477    -0.19700
C661        C  0.89975503  0.95680661  0.96937465    -0.29100
C662        C  0.91233689  0.96783643  0.93005000     0.43900
C663        C  0.03088467  0.00842284  0.99070233     0.05000
O664        O  0.00402468  0.98298288  0.06926035    -0.57600
H665        H  0.92134684  0.95466200  0.04660302     0.18000
O666        O  0.88138727  0.96452082  0.88425637    -0.64300
H667        H  0.96234545  0.99400832  0.90676444     0.16400
C668        C  0.06345445  0.00043698  0.96617313     0.28700
C669        C  0.10664838  0.01622002  0.97396896    -0.25200
C670        C  0.11923103  0.04016949  0.00655295    -0.24500
C671        C  0.08580888  0.04910477  0.02969148     0.40100
C672        C  0.04210521  0.03323017  0.02178025    -0.26900
O673        O  0.05518616  0.97571786  0.93723342    -0.58800
H674        H  0.13161979  0.00867534  0.95575416     0.15800
O675        O  0.09679348  0.07183885  0.06247111    -0.60300
H676        H  0.01728121  0.03999388  0.04061573     0.14200
H677        H  0.89247756  0.94625945  0.87184912     0.46100
H678        H  0.04664735  0.98348772  0.90404460     0.41400
H679        H  0.08480670  0.09013997  0.04358480     0.44900
H680        H  0.02873514  0.96700852  0.07464698     0.36400
C681        C  0.57285749  0.02673897  0.97065412    -0.27900
C682        C  0.53171945  0.00863382  0.96352280     0.01700
C683        C  0.53125788  0.97990944  0.94420290     0.29800
C684        C  0.57200882  0.96914586  0.93460937    -0.19700
C685        C  0.61441647  0.98616724  0.94527914    -0.29100
C686        C  0.61433057  0.01557631  0.96178041     0.43900
C687        C  0.49006381  0.01867114  0.97825636     0.05000
O688        O  0.49230021  0.96132882  0.93762182    -0.57600
H689        H  0.57173244  0.94637047  0.92220162     0.18000
O690        O  0.65530424  0.03274470  0.97235671    -0.64300
H691        H  0.57344423  0.04905387  0.98486008     0.16400
C692        C  0.49603010  0.02800385  0.02560422     0.28700
C693        C  0.45538877  0.03506946  0.03933871    -0.25200
C694        C  0.40866572  0.03171681  0.00686837    -0.24500
C695        C  0.40275675  0.02217451  0.95979155     0.40100
C696        C  0.44323016  0.01626547  0.94560816    -0.26900
O697        O  0.54123134  0.02988924  0.05879624    -0.58800
H698        H  0.46026949  0.04300352  0.07536879     0.15800
O699        O  0.35759704  0.02038907  0.92647605    -0.60300
H700        H  0.43801328  0.00950292  0.90893957     0.14200
H701        H  0.67374175  0.02802252  0.00614189     0.46100
H702        H  0.54796637  0.00972007  0.07310134     0.41400
H703        H  0.34762428  0.99932657  0.92710961     0.44900
H704        H  0.49759131  0.95143230  0.96900747     0.36400
C705        C  0.74188267  0.97293683  0.26965494    -0.27900
C706        C  0.74938941  0.98873451  0.23139862     0.01700
C707        C  0.75120282  0.02004348  0.23319441     0.29800
C708        C  0.74893470  0.03496045  0.27408284    -0.19700
C709        C  0.74433276  0.01919969  0.31361168    -0.29100
C710        C  0.73905704  0.98797744  0.31054683     0.43900
C711        C  0.75476167  0.97275401  0.18927613     0.05000
O712        O  0.75380508  0.03623357  0.19448507    -0.57600
H713        H  0.75144098  0.05904891  0.27505197     0.18000
O714        O  0.73401046  0.97181335  0.34821281    -0.64300
H715        H  0.73950113  0.94885630  0.26831952     0.16400
C716        C  0.79484014  0.97820858  0.17325161     0.28700
C717        C  0.79512318  0.96729397  0.12880589    -0.25200
C718        C  0.75687208  0.94969619  0.10096027    -0.24500
C719        C  0.71889787  0.94203619  0.11888373     0.40100
C720        C  0.71787026  0.95373750  0.16267128    -0.26900
O721        O  0.83306282  0.99511062  0.19998206    -0.58800
H722        H  0.82463639  0.97317642  0.11548471     0.15800
O723        O  0.68023244  0.92562944  0.09171282    -0.60300
H724        H  0.68694035  0.94925115  0.17459680     0.14200
H725        H  0.69858208  0.97024099  0.34203191     0.46100
H726        H  0.85316659  0.98140956  0.22478722     0.41400
H727        H  0.68905939  0.90460772  0.10063505     0.44900
H728        H  0.78602574  0.04596551  0.20495175     0.36400
C729        C  0.77312432  0.02369751  0.77315275    -0.27900
C730        C  0.75860080  0.00841833  0.72933154     0.01700
C731        C  0.74108293  0.97913428  0.72779064     0.29800
C732        C  0.73916472  0.96531563  0.76978270    -0.19700
C733        C  0.75444189  0.98027818  0.81413365    -0.29100
C734        C  0.77124874  0.00990955  0.81534458     0.43900
C735        C  0.76177000  0.02298108  0.68519501     0.05000
O736        O  0.72589252  0.96375915  0.68533350    -0.57600
H737        H  0.72593604  0.94264246  0.76753025     0.18000
O738        O  0.78773764  0.02527306  0.85769510    -0.64300
H739        H  0.78676972  0.04624608  0.77477382     0.16400
C740        C  0.73304404  0.04790646  0.66573114     0.28700
C741        C  0.73343226  0.05974304  0.62179141    -0.25200
C742        C  0.76209372  0.04693581  0.59627787    -0.24500
C743        C  0.79261402  0.02271753  0.61717180     0.40100
C744        C  0.79195406  0.01089150  0.66101321    -0.26900
O745        O  0.70287785  0.06006559  0.68838622    -0.58800
H746        H  0.70956545  0.07824153  0.60675711     0.15800
O747        O  0.82138505  0.00931887  0.59408531    -0.60300
H748        H  0.81440822  0.99175389  0.67578348     0.14200
H749        H  0.75930614  0.03656040  0.86013995     0.46100
H750        H  0.67212170  0.04882102  0.67602357     0.41400
H751        H  0.85207519  0.02076069  0.60399261     0.44900
H752        H  0.69169936  0.96983950  0.67010804     0.36400
loop_ 
_geom_bond_atom_site_label_1 
_geom_bond_atom_site_label_2 
_geom_bond_distance 
_geom_bond_site_symmetry_2 
_ccdc_geom_bond_type 
O1           C16   1.259       .  A
O1           Al9   1.886       .  S
C2           O12   1.257       .  A
C2            O3   1.268       .  A
C2          C613   1.477       .  S
O3           Al5   1.940       .  S
O4            C6   1.257       .  A
O4           Al5   1.889       .  S
Al5          O13   1.936       .  S
Al5          O15   1.950       .  S
Al5          O14   1.791       .  S
C6           O19   1.262       .  A
C6          C733   1.490       .  S
O7           C17   1.262       .  A
O7           Al9   1.915       .  S
O8           C21   1.261       .  A
O8          Al18   1.889   1_554  S
Al9          O22   1.921   1_556  S
Al9          O19   1.926       .  S
Al9          O14   1.792       .  S
O10          C17   1.257       .  A
O10         Al18   1.879       .  S
O11          C20   1.255       .  A
O11         Al18   1.881       .  S
O12         Al18   1.871       .  S
O13          C20   1.266       .  A
O14         Al18   1.784       .  S
O15          C16   1.272       .  A
C16         C661   1.483       .  S
C17         C685   1.467       .  S
C20         C637   1.489       .  S
C21          O22   1.265       .  A
C21         C718   1.469       .  S
O23          C38   1.261       .  A
O23         Al31   1.892   1_556  S
C24          O34   1.268       .  A
C24          O25   1.271       .  A
C24         C493   1.495       .  S
O25         Al27   1.936       .  S
O26          C28   1.253       .  A
O26         Al27   1.867       .  S
Al27         O35   1.897       .  S
Al27         O37   1.921   1_554  S
Al27         O36   1.778       .  S
C28          O41   1.263       .  A
C28         C589   1.484       .  S
O29          C39   1.265       .  A
O29         Al31   1.932       .  S
O30          C43   1.282       .  A
O30         Al40   1.953       .  S
Al31         O44   1.910       .  S
Al31         O41   1.927       .  S
Al31         O36   1.777       .  S
O32          C39   1.259       .  A
O32         Al40   1.900       .  S
O33          C42   1.264       .  A
O33         Al40   1.949       .  S
O34         Al40   1.912       .  S
O35          C42   1.254       .  A
O36         Al40   1.786       .  S
O37          C38   1.264       .  A
C38         C541   1.489       .  S
C39         C526   1.482       .  S
C42         C646   1.485       .  S
C43          O44   1.269       .  A
C43         C565   1.502       .  S
O45          C60   1.263       .  A
O45         Al53   1.889       .  S
C46          O56   1.259       .  A
C46          O47   1.267       .  A
C46         C622   1.478       .  S
O47         Al49   1.930       .  S
O48          C50   1.255       .  A
O48         Al49   1.888       .  S
Al49         O57   1.925       .  S
Al49         O59   1.945       .  S
Al49         O58   1.791       .  S
C50          O63   1.259       .  A
C50         C406   1.491       .  S
O51          C61   1.263       .  A
O51         Al53   1.915       .  S
O52          C65   1.264       .  A
O52         Al62   1.907       .  S
Al53         O66   1.924       .  S
Al53         O63   1.922       .  S
Al53         O58   1.792       .  S
O54          C61   1.258       .  A
O54         Al62   1.881       .  S
O55          C64   1.253       .  A
O55         Al62   1.874       .  S
O56         Al62   1.880       .  S
O57          C64   1.263       .  A
O58         Al62   1.787       .  S
O59          C60   1.273       .  A
C60         C454   1.486       .  S
C61         C478   1.466       .  S
C64         C382   1.482       .  S
C65          O66   1.265       .  A
C65         C421   1.490       .  S
O67          C82   1.262       .  A
O67         Al75   1.906       .  S
C68          O78   1.269       .  A
C68          O69   1.266       .  A
C68         C502   1.497       .  S
O69         Al71   1.922       .  S
O70          C72   1.252       .  A
O70         Al71   1.870       .  S
Al71         O79   1.901       .  S
Al71         O81   1.918       .  S
Al71         O80   1.781       .  S
C72          O85   1.263       .  A
C72         C301   1.459       .  S
O73          C83   1.266       .  A
O73         Al75   1.931       .  S
O74          C87   1.280       .  A
O74         Al84   1.958       .  S
Al75         O88   1.897       .  S
Al75         O85   1.919       .  S
Al75         O80   1.779       .  S
O76          C83   1.259       .  A
O76         Al84   1.896       .  S
O77          C86   1.265       .  A
O77         Al84   1.938       .  S
O78         Al84   1.931       .  S
O79          C86   1.258       .  A
O80         Al84   1.781       .  S
O81          C82   1.264       .  A
C82         C334   1.486       .  S
C83         C358   1.485       .  S
C86         C373   1.481       .  S
C87          O88   1.265       .  A
C87         C286   1.497       .  S
O89         C104   1.261       .  A
O89         Al97   1.886       .  S
C90         O100   1.260       .  A
C90          O91   1.270       .  A
C90         C229   1.498       .  S
O91         Al93   1.949       .  S
O92          C94   1.255       .  A
O92         Al93   1.885       .  S
Al93        O101   1.925       .  S
Al93        O103   1.969       .  S
Al93        O102   1.787       .  S
C94         O107   1.261       .  A
C94         C550   1.484       .  S
O95         C105   1.262       .  A
O95         Al97   1.907       .  S
O96         C109   1.264       .  A
O96        Al106   1.908       .  S
Al97        O110   1.919       .  S
Al97        O107   1.927       .  S
Al97        O102   1.788       .  S
O98         C105   1.258       .  A
O98        Al106   1.881       .  S
O99         C108   1.254       .  A
O99        Al106   1.880       .  S
O100       Al106   1.887       .  S
O101        C108   1.265       .  A
O102       Al106   1.784       .  S
O103        C104   1.276       .  A
C104        C277   1.493       .  S
C105        C310   1.464       .  S
C108        C262   1.476       .  S
C109        O110   1.266       .  A
C109        C517   1.490       .  S
O111        C126   1.262       .  A
O111       Al119   1.892       .  S
C112        O122   1.264       .  A
C112        O113   1.266       .  A
C112        C214   1.487       .  S
O113       Al115   1.923       .  S
O114        C116   1.254       .  A
O114       Al115   1.885       .  S
Al115       O123   1.881       .  S
Al115       O125   1.930       .  S
Al115       O124   1.773       .  S
C116        O129   1.259       .  A
C116        C469   1.464       .  S
O117        C127   1.264       .  A
O117       Al119   1.906       .  S
O118        C131   1.276       .  A
O118       Al128   1.946       .  S
Al119       O132   1.892       .  S
Al119       O129   1.909       .  S
Al119       O124   1.775       .  S
O120        C127   1.265       .  A
O120       Al128   1.912       .  S
O121        C130   1.268       .  A
O121       Al128   1.955       .  S
O122       Al128   1.903       .  S
O123        C130   1.256       .  A
O124       Al128   1.784       .  S
O125        C126   1.268       .  A
C126        C742   1.489       .  S
C127        C709   1.478       .  S
C130        C253   1.493       .  S
C131        O132   1.263       .  A
C131        C445   1.488       .  S
O133        C148   1.263       .  A
O133       Al141   1.905   1_556  S
C134        O144   1.268       .  A
C134        O135   1.265       .  A
C134        C205   1.492       .  S
O135       Al137   1.914       .  S
O136        C138   1.254       .  A
O136       Al137   1.883       .  S
Al137       O145   1.888   1_554  S
Al137       O147   1.914   1_554  S
Al137       O146   1.778       .  S
C138        O151   1.262       .  A
C138        C694   1.465       .  S
O139        C149   1.266       .  A
O139       Al141   1.931       .  S
O140        C153   1.278       .  A
O140       Al150   1.950       .  S
Al141       O154   1.895       .  S
Al141       O151   1.918       .  S
Al141       O146   1.777       .  S
O142        C149   1.261       .  A
O142       Al150   1.908       .  S
O143        C152   1.268       .  A
O143       Al150   1.951       .  S
O144       Al150   1.924       .  S
O145        C152   1.256   1_556  A
O146       Al150   1.785       .  S
O147        C148   1.263       .  A
C148        C397   1.487       .  S
C149        C430   1.477       .  S
C152        C190   1.491       .  S
C153        O154   1.265       .  A
C153        C670   1.493       .  S
O155        C170   1.258   1_554  A
O155       Al163   1.881   1_554  S
C156        O166   1.260       .  A
C156        O157   1.271       .  A
C156        C238   1.492       .  S
O157       Al159   1.965       .  S
O158        C160   1.259       .  A
O158       Al159   1.889       .  S
Al159       O167   1.931       .  S
Al159       O169   1.971       .  S
Al159       O168   1.790       .  S
C160        O173   1.265       .  A
C160        C325   1.486       .  S
O161        C171   1.260       .  A
O161       Al163   1.909       .  S
O162        C175   1.264       .  A
O162       Al172   1.903   1_554  S
Al163       O176   1.930   1_556  S
Al163       O173   1.937       .  S
Al163       O168   1.784       .  S
O164        C171   1.258       .  A
O164       Al172   1.896       .  S
O165        C174   1.261       .  A
O165       Al172   1.899       .  S
O166       Al172   1.880       .  S
O167        C174   1.267       .  A
O168       Al172   1.778       .  S
O169        C170   1.274       .  A
C170        C574   1.497       .  S
C171        C598   1.462       .  S
C174        C181   1.496       .  S
C175        O176   1.268       .  A
C175        C349   1.485       .  S
C177        C178   1.410   1_556  A
C177        C182   1.411       .  A
C177        H187   1.083       .  S
C178        C183   1.496       .  S
C178        C179   1.407       .  A
C179        C180   1.398       .  A
C179        O184   1.372       .  S
C180        C181   1.409   1_554  A
C180        H185   1.083       .  S
C181        C182   1.413       .  A
C182        O186   1.371       .  S
C183        C188   1.410   1_554  A
C183        C192   1.406       .  A
O184        H200   0.992       .  S
O186        H197   0.992       .  S
C188        C189   1.406       .  A
C188        O193   1.372       .  S
C189        C190   1.408   1_556  A
C189        H194   1.083       .  S
C190        C191   1.413       .  A
C191        C192   1.404       .  A
C191        O195   1.371       .  S
C192        H196   1.083       .  S
O193        H198   0.992       .  S
O195        H199   0.992       .  S
C201        C202   1.405       .  A
C201        C206   1.408       .  A
C201        H211   1.084       .  S
C202        C207   1.484       .  S
C202        C203   1.403       .  A
C203        C204   1.398       .  A
C203        O208   1.372       .  S
C204        C205   1.411       .  A
C204        H209   1.083       .  S
C205        C206   1.412       .  A
C206        O210   1.373       .  S
C207        C212   1.405       .  A
C207        C216   1.403       .  A
O208        H224   0.992       .  S
O210        H221   0.991       .  S
C212        C213   1.402       .  A
C212        O217   1.371       .  S
C213        C214   1.408       .  A
C213        H218   1.083       .  S
C214        C215   1.414       .  A
C215        C216   1.402       .  A
C215        O219   1.372       .  S
C216        H220   1.084       .  S
O217        H222   0.992       .  S
O219        H223   0.992       .  S
C225        C226   1.407       .  A
C225        C230   1.407       .  A
C225        H235   1.084       .  S
C226        C231   1.494   1_655  S
C226        C227   1.406       .  A
C227        C228   1.403       .  A
C227        O232   1.372   1_655  S
C228        C229   1.411       .  A
C228        H233   1.083       .  S
C229        C230   1.413       .  A
C230        O234   1.371       .  S
C231        C236   1.406       .  A
C231        C240   1.410       .  A
O232        H248   0.992       .  S
O234        H245   0.992       .  S
C236        C237   1.397       .  A
C236        O241   1.372       .  S
C237        C238   1.405       .  A
C237        H242   1.077       .  S
C238        C239   1.411       .  A
C239        C240   1.413       .  A
C239        O243   1.371       .  S
C240        H244   1.083       .  S
O241        H246   0.992       .  S
O243        H247   0.992       .  S
C249        C250   1.400       .  A
C249        C254   1.398       .  A
C249        H259   1.084       .  S
C250        C255   1.494       .  S
C250        C251   1.414       .  A
C251        C252   1.411       .  A
C251        O256   1.373       .  S
C252        C253   1.406       .  A
C252        H257   1.083       .  S
C253        C254   1.416       .  A
C254        O258   1.371       .  S
C255        C260   1.411       .  A
C255        C264   1.408       .  A
O256        H272   0.992       .  S
O258        H269   0.992       .  S
C260        C261   1.404       .  A
C260        O265   1.371       .  S
C261        C262   1.405       .  A
C261        H266   1.084       .  S
C262        C263   1.407       .  A
C263        C264   1.403       .  A
C263        O267   1.372       .  S
C264        H268   1.083       .  S
O265        H270   0.992       .  S
O267        H271   0.991       .  S
C273        C274   1.407       .  A
C273        C278   1.407       .  A
C273        H283   1.083       .  S
C274        C279   1.507       .  S
C274        C275   1.416       .  A
C275        C276   1.408       .  A
C275        O280   1.371       .  S
C276        C277   1.405       .  A
C276        H281   1.084       .  S
C277        C278   1.413       .  A
C278        O282   1.371       .  S
C279        C284   1.419       .  A
C279        C288   1.402       .  A
O280        H296   0.992       .  S
O282        H293   0.992       .  S
C284        C285   1.414       .  A
C284        O289   1.371       .  S
C285        C286   1.405       .  A
C285        H290   1.083       .  S
C286        C287   1.417       .  A
C287        C288   1.401       .  A
C287        O291   1.373       .  S
C288        H292   1.083       .  S
O289        H294   0.992       .  S
O291        H295   0.992       .  S
C297        C298   1.405       .  A
C297        C302   1.398       .  A
C297        H307   1.083   1_455  S
C298        C303   1.474   1_455  S
C298        C299   1.409       .  A
C299        C300   1.392       .  A
C299        O304   1.372       .  S
C300        C301   1.400       .  A
C300        H305   1.084       .  S
C301        C302   1.406       .  A
C302        O306   1.372       .  S
C303        C308   1.410       .  A
C303        C312   1.399       .  A
O304        H320   0.992       .  S
O306        H317   0.992       .  S
C308        C309   1.404       .  A
C308        O313   1.372       .  S
C309        C310   1.402       .  A
C309        H314   1.084       .  S
C310        C311   1.408       .  A
C311        C312   1.387       .  A
C311        O315   1.373       .  S
C312        H316   1.084   1_655  S
O313        H318   0.992       .  S
O315        H319   0.992       .  S
C321        C322   1.403       .  A
C321        C326   1.406       .  A
C321        H331   1.083       .  S
C322        C327   1.484       .  S
C322        C323   1.407       .  A
C323        C324   1.400       .  A
C323        O328   1.373       .  S
C324        C325   1.405       .  A
C324        H329   1.084       .  S
C325        C326   1.413       .  A
C326        O330   1.372       .  S
C327        C332   1.406       .  A
C327        C336   1.404       .  A
O328        H344   0.992       .  S
O330        H341   0.992       .  S
C332        C333   1.401       .  A
C332        O337   1.373       .  S
C333        C334   1.407       .  A
C333        H338   1.084       .  S
C334        C335   1.412       .  A
C335        C336   1.405       .  A
C335        O339   1.371       .  S
C336        H340   1.084       .  S
O337        H342   0.992       .  S
O339        H343   0.992       .  S
C345        C346   1.406       .  A
C345        C350   1.402       .  A
C345        H355   1.084       .  S
C346        C351   1.490       .  S
C346        C347   1.408       .  A
C347        C348   1.405       .  A
C347        O352   1.371       .  S
C348        C349   1.407       .  A
C348        H353   1.084       .  S
C349        C350   1.409       .  A
C350        O354   1.372       .  S
C351        C356   1.412       .  A
C351        C360   1.401       .  A
O352        H368   0.992       .  S
O354        H365   0.992       .  S
C356        C357   1.410       .  A
C356        O361   1.371       .  S
C357        C358   1.406       .  A
C357        H362   1.083       .  S
C358        C359   1.412       .  A
C359        C360   1.397       .  A
C359        O363   1.372       .  S
C360        H364   1.084       .  S
O361        H366   0.992       .  S
O363        H367   0.992       .  S
C369        C370   1.411       .  A
C369        C374   1.409       .  A
C369        H379   1.082       .  S
C370        C375   1.500       .  S
C370        C371   1.412       .  A
C371        C372   1.399       .  A
C371        O376   1.372       .  S
C372        C373   1.403       .  A
C372        H377   1.084       .  S
C373        C374   1.407       .  A
C374        O378   1.371       .  S
C375        C380   1.414       .  A
C375        C384   1.406       .  A
O376        H392   0.992       .  S
O378        H389   0.992       .  S
C380        C381   1.410       .  A
C380        O385   1.372       .  S
C381        C382   1.404       .  A
C381        H386   1.084       .  S
C382        C383   1.410       .  A
C383        C384   1.398       .  A
C383        O387   1.372       .  S
C384        H388   1.083       .  S
O385        H390   0.992       .  S
O387        H391   0.992       .  S
C393        C394   1.404       .  A
C393        C398   1.401       .  A
C393        H403   1.084       .  S
C394        C399   1.482       .  S
C394        C395   1.405       .  A
C395        C396   1.400       .  A
C395        O400   1.372       .  S
C396        C397   1.409       .  A
C396        H401   1.083       .  S
C397        C398   1.412       .  A
C398        O402   1.371       .  S
C399        C404   1.405   1_545  A
C399        C408   1.403       .  A
O400        H416   0.992       .  S
O402        H413   0.992       .  S
C404        C405   1.398       .  A
C404        O409   1.372       .  S
C405        C406   1.407       .  A
C405        H410   1.083       .  S
C406        C407   1.416   1_565  A
C407        C408   1.406       .  A
C407        O411   1.371       .  S
C408        H412   1.083       .  S
O409        H414   0.992       .  S
O411        H415   0.992       .  S
C417        C418   1.403       .  A
C417        C422   1.402       .  A
C417        H427   1.084   1_565  S
C418        C423   1.487       .  S
C418        C419   1.407       .  A
C419        C420   1.406       .  A
C419        O424   1.371       .  S
C420        C421   1.409       .  A
C420        H425   1.083       .  S
C421        C422   1.413       .  A
C422        O426   1.372       .  S
C423        C428   1.406       .  A
C423        C432   1.408       .  A
O424        H440   0.992       .  S
O426        H437   0.992   1_565  S
C428        C429   1.401       .  A
C428        O433   1.372       .  S
C429        C430   1.405   1_565  A
C429        H434   1.084       .  S
C430        C431   1.407   1_545  A
C431        C432   1.407       .  A
C431        O435   1.371   1_565  S
C432        H436   1.083       .  S
O433        H438   0.992       .  S
O435        H439   0.990       .  S
C441        C442   1.413       .  A
C441        C446   1.411       .  A
C441        H451   1.083   1_655  S
C442        C447   1.499   1_645  S
C442        C443   1.409       .  A
C443        C444   1.396       .  A
C443        O448   1.372   1_545  S
C444        C445   1.408       .  A
C444        H449   1.084       .  S
C445        C446   1.408       .  A
C446        O450   1.371       .  S
C447        C452   1.412       .  A
C447        C456   1.408       .  A
O448        H464   0.992       .  S
O450        H461   0.992       .  S
C452        C453   1.404       .  A
C452        O457   1.371   1_565  S
C453        C454   1.406       .  A
C453        H458   1.084       .  S
C454        C455   1.411       .  A
C455        C456   1.403       .  A
C455        O459   1.372       .  S
C456        H460   1.083       .  S
O457        H462   0.992   1_545  S
O459        H463   0.992       .  S
C465        C466   1.408       .  A
C465        C470   1.399       .  A
C465        H475   1.083       .  S
C466        C471   1.483       .  S
C466        C467   1.411       .  A
C467        C468   1.394       .  A
C467        O472   1.372   1_545  S
C468        C469   1.402       .  A
C468        H473   1.085       .  S
C469        C470   1.404       .  A
C470        O474   1.372       .  S
C471        C476   1.413       .  A
C471        C480   1.402   1_545  A
O472        H488   0.992   1_565  S
O474        H485   0.992       .  S
C476        C477   1.404       .  A
C476        O481   1.372       .  S
C477        C478   1.400   1_545  A
C477        H482   1.084       .  S
C478        C479   1.409       .  A
C479        C480   1.390       .  A
C479        O483   1.373       .  S
C480        H484   1.083       .  S
O481        H486   0.992       .  S
O483        H487   0.992       .  S
C489        C490   1.407       .  A
C489        C494   1.406       .  A
C489        H499   1.083       .  S
C490        C495   1.498   1_655  S
C490        C491   1.410       .  A
C491        C492   1.403       .  A
C491        O496   1.371   1_655  S
C492        C493   1.409       .  A
C492        H497   1.083       .  S
C493        C494   1.415       .  A
C494        O498   1.372       .  S
C495        C500   1.408       .  A
C495        C504   1.408       .  A
O496        H512   0.992       .  S
O498        H509   0.992       .  S
C500        C501   1.405       .  A
C500        O505   1.372       .  S
C501        C502   1.411       .  A
C501        H506   1.083       .  S
C502        C503   1.411       .  A
C503        C504   1.407       .  A
C503        O507   1.370       .  S
C504        H508   1.083       .  S
O505        H510   0.992   1_455  S
O507        H511   0.991       .  S
C513        C514   1.404       .  A
C513        C518   1.408       .  A
C513        H523   1.083       .  S
C514        C519   1.484       .  S
C514        C515   1.406       .  A
C515        C516   1.395       .  A
C515        O520   1.372       .  S
C516        C517   1.407       .  A
C516        H521   1.083       .  S
C517        C518   1.416       .  A
C518        O522   1.371       .  S
C519        C524   1.411       .  A
C519        C528   1.399       .  A
O520        H536   0.992       .  S
O522        H533   0.992       .  S
C524        C525   1.409       .  A
C524        O529   1.371       .  S
C525        C526   1.404       .  A
C525        H530   1.083       .  S
C526        C527   1.414       .  A
C527        C528   1.395       .  A
C527        O531   1.373       .  S
C528        H532   1.084       .  S
O529        H534   0.992       .  S
O531        H535   0.992       .  S
C537        C538   1.401       .  A
C537        C542   1.403       .  A
C537        H547   1.084       .  S
C538        C543   1.478       .  S
C538        C539   1.405       .  A
C539        C540   1.399       .  A
C539        O544   1.372       .  S
C540        C541   1.408       .  A
C540        H545   1.083       .  S
C541        C542   1.416       .  A
C542        O546   1.371       .  S
C543        C548   1.405       .  A
C543        C552   1.400       .  A
O544        H560   0.992       .  S
O546        H557   0.992       .  S
C548        C549   1.404       .  A
C548        O553   1.371       .  S
C549        C550   1.408       .  A
C549        H554   1.083       .  S
C550        C551   1.413       .  A
C551        C552   1.399       .  A
C551        O555   1.372       .  S
C552        H556   1.084       .  S
O553        H558   0.992       .  S
O555        H559   0.992       .  S
C561        C562   1.400       .  A
C561        C566   1.402       .  A
C561        H571   1.083       .  S
C562        C567   1.502       .  S
C562        C563   1.416   1_556  A
C563        C564   1.412       .  A
C563        O568   1.371       .  S
C564        C565   1.406       .  A
C564        H569   1.083       .  S
C565        C566   1.421   1_554  A
C566        O570   1.373       .  S
C567        C572   1.414       .  A
C567        C576   1.404   1_556  A
O568        H584   0.992   1_554  S
O570        H581   0.992       .  S
C572        C573   1.411       .  A
C572        O577   1.372       .  S
C573        C574   1.407       .  A
C573        H578   1.083       .  S
C574        C575   1.415   1_556  A
C575        C576   1.404       .  A
C575        O579   1.372       .  S
C576        H580   1.083       .  S
O577        H582   0.992       .  S
O579        H583   0.992       .  S
C585        C586   1.405   1_655  A
C585        C590   1.402       .  A
C585        H595   1.084       .  S
C586        C591   1.477   1_554  S
C586        C587   1.402       .  A
C587        C588   1.397   1_455  A
C587        O592   1.373       .  S
C588        C589   1.411       .  A
C588        H593   1.083       .  S
C589        C590   1.410       .  A
C590        O594   1.371       .  S
C591        C596   1.409   1_556  A
C591        C600   1.402       .  A
O592        H608   0.992       .  S
O594        H605   0.992   1_554  S
C596        C597   1.399       .  A
C596        O601   1.372       .  S
C597        C598   1.401   1_554  A
C597        H602   1.084       .  S
C598        C599   1.404       .  A
C599        C600   1.397       .  A
C599        O603   1.369       .  S
C600        H604   1.084       .  S
O601        H606   0.992       .  S
O603        H607   0.992       .  S
C609        C610   1.404       .  A
C609        C614   1.400       .  A
C609        H619   1.084       .  S
C610        C615   1.490       .  S
C610        C611   1.413       .  A
C611        C612   1.404       .  A
C611        O616   1.372       .  S
C612        C613   1.402       .  A
C612        H617   1.084       .  S
C613        C614   1.409       .  A
C614        O618   1.372       .  S
C615        C620   1.409       .  A
C615        C624   1.407       .  A
O616        H632   0.992       .  S
O618        H629   0.992       .  S
C620        C621   1.401       .  A
C620        O625   1.371       .  S
C621        C622   1.405       .  A
C621        H626   1.084       .  S
C622        C623   1.408       .  A
C623        C624   1.401       .  A
C623        O627   1.372       .  S
C624        H628   1.084       .  S
O625        H630   0.992       .  S
O627        H631   0.991       .  S
C633        C634   1.404       .  A
C633        C638   1.403       .  A
C633        H643   1.083       .  S
C634        C639   1.500       .  S
C634        C635   1.414   1_554  A
C635        C636   1.409       .  A
C635        O640   1.371       .  S
C636        C637   1.404       .  A
C636        H641   1.083       .  S
C637        C638   1.414   1_556  A
C638        O642   1.373       .  S
C639        C644   1.411       .  A
C639        C648   1.409   1_554  A
O640        H656   0.992       .  S
O642        H653   0.992       .  S
C644        C645   1.406       .  A
C644        O649   1.372       .  S
C645        C646   1.406       .  A
C645        H650   1.084       .  S
C646        C647   1.407   1_554  A
C647        C648   1.408       .  A
C647        O651   1.371       .  S
C648        H652   1.083       .  S
O649        H654   0.992       .  S
O651        H655   0.992       .  S
C657        C658   1.407       .  A
C657        C662   1.403       .  A
C657        H667   1.083       .  S
C658        C663   1.498   1_665  S
C658        C659   1.412   1_556  A
C659        C660   1.407       .  A
C659        O664   1.371   1_655  S
C660        C661   1.406   1_554  A
C660        H665   1.084       .  S
C661        C662   1.409       .  A
C662        O666   1.372       .  S
C663        C668   1.407       .  A
C663        C672   1.412   1_556  A
O664        H680   0.992       .  S
O666        H677   0.991       .  S
C668        C669   1.398       .  A
C668        O673   1.373   1_545  S
C669        C670   1.409   1_556  A
C669        H674   1.084       .  S
C670        C671   1.410       .  A
C671        C672   1.413       .  A
C671        O675   1.371       .  S
C672        H676   1.083       .  S
O673        H678   0.992       .  S
O675        H679   0.992       .  S
C681        C682   1.408       .  A
C681        C686   1.405       .  A
C681        H691   1.083       .  S
C682        C687   1.480       .  S
C682        C683   1.407   1_545  A
C683        C684   1.389       .  A
C683        O688   1.372       .  S
C684        C685   1.401       .  A
C684        H689   1.085       .  S
C685        C686   1.407   1_565  A
C686        O690   1.372       .  S
C687        C692   1.411   1_556  A
C687        C696   1.402       .  A
O688        H704   0.992       .  S
O690        H701   0.992   1_556  S
C692        C693   1.401       .  A
C692        O697   1.371       .  S
C693        C694   1.402       .  A
C693        H698   1.084       .  S
C694        C695   1.407   1_554  A
C695        C696   1.393       .  A
C695        O699   1.372       .  S
C696        H700   1.084       .  S
O697        H702   0.992       .  S
O699        H703   0.992   1_545  S
C705        C706   1.405       .  A
C705        C710   1.404       .  A
C705        H715   1.083       .  S
C706        C711   1.481       .  S
C706        C707   1.407   1_565  A
C707        C708   1.396       .  A
C707        O712   1.373       .  S
C708        C709   1.404       .  A
C708        H713   1.084       .  S
C709        C710   1.410   1_545  A
C710        O714   1.371       .  S
C711        C716   1.411       .  A
C711        C720   1.402       .  A
O712        H728   0.992       .  S
O714        H725   0.992       .  S
C716        C717   1.398       .  A
C716        O721   1.372       .  S
C717        C718   1.400       .  A
C717        H722   1.084       .  S
C718        C719   1.410       .  A
C719        C720   1.400       .  A
C719        O723   1.372       .  S
C720        H724   1.084       .  S
O721        H726   0.992       .  S
O723        H727   0.992       .  S
C729        C730   1.402       .  A
C729        C734   1.404       .  A
C729        H739   1.084       .  S
C730        C735   1.483       .  S
C730        C731   1.406   1_545  A
C731        C732   1.399       .  A
C731        O736   1.372       .  S
C732        C733   1.408       .  A
C732        H737   1.083       .  S
C733        C734   1.415   1_565  A
C734        O738   1.371       .  S
C735        C740   1.406       .  A
C735        C744   1.402       .  A
O736        H752   0.992       .  S
O738        H749   0.992       .  S
C740        C741   1.401       .  A
C740        O745   1.371       .  S
C741        C742   1.408       .  A
C741        H746   1.083       .  S
C742        C743   1.416       .  A
C743        C744   1.401       .  A
C743        O747   1.372       .  S
C744        H748   1.084   1_545  S
O745        H750   0.992       .  S
O747        H751   0.992       .  S
