geometry optimzed in LAMMPS
_audit_creation_date              2020-12-01 
_audit_creation_method            'lammps2cif' 
_symmetry_space_group_name_H-M    'P1' 
_symmetry_Int_Tables_number       1 
_symmetry_cell_setting            triclinic 
loop_ 
_symmetry_equiv_pos_as_xyz 
  x,y,z 
_cell_length_a                    41.17261496 
_cell_length_b                    32.09987932481175 
_cell_length_c                    42.28710247739065 
_cell_angle_alpha                 89.88787051941661 
_cell_angle_beta                  89.74811545553683 
_cell_angle_gamma                 89.42100972648075 
loop_ 
_atom_site_label 
_atom_site_type_symbol 
_atom_site_fract_x 
_atom_site_fract_y 
_atom_site_fract_z 
_atom_site_charge 
O1          O  0.39341690  0.72628350  0.02083694    -0.82300
C2          C  0.45921744  0.64240806  0.42288630     0.97100
O3          O  0.46621476  0.63934116  0.45196591    -0.71400
O4          O  0.47550965  0.71140532  0.47764381    -0.75000
Al5        Al  0.44918051  0.66704315  0.98904109     1.49000
C6          C  0.47051211  0.74955089  0.48253693     0.92300
O7          O  0.40593236  0.75789065  0.43467056    -0.81200
O8          O  0.35297172  0.66180107  0.46445369    -0.74800
Al9        Al  0.40061997  0.74018591  0.47731638     1.90100
O10         O  0.38100270  0.70401305  0.41438507    -0.73900
O11         O  0.40025864  0.60451436  0.45986525    -0.73700
O12         O  0.43066489  0.65237749  0.41462681    -0.79400
O13         O  0.42764504  0.61805642  0.00304497    -0.77600
O14         O  0.41415352  0.68816263  0.46909251    -1.13700
O15         O  0.43853822  0.69065882  0.02955383    -0.72900
C16         C  0.41382928  0.71043972  0.03945509     0.97800
C17         C  0.39192497  0.74052316  0.41182089     0.94200
Al18       Al  0.39291912  0.65800845  0.44071808     1.55600
O19         O  0.44211189  0.76341152  0.48623942    -0.77500
C20         C  0.41134033  0.59266980  0.48616814     0.98400
C21         C  0.34010444  0.69612360  0.47270677     0.93300
O22         O  0.35585475  0.72954425  0.47141625    -0.82800
O23         O  0.39047171  0.28089390  0.48376587    -0.82300
C24         C  0.45568518  0.36085362  0.08336124     0.97100
O25         O  0.46311074  0.36497875  0.05425360    -0.71400
O26         O  0.47125863  0.29518552  0.02441323    -0.75000
Al27       Al  0.44446549  0.34178499  0.01600841     1.49000
C28         C  0.46581279  0.25711801  0.02064688     0.92300
O29         O  0.39972340  0.25208307  0.07061876    -0.81200
O30         O  0.34971313  0.35227507  0.04007570    -0.74800
Al31       Al  0.39576443  0.27010277  0.02745362     1.90100
O32         O  0.37381251  0.30650418  0.08954053    -0.73900
O33         O  0.39925961  0.40603773  0.04867347    -0.73700
O34         O  0.42671074  0.35250588  0.09136582    -0.79400
O35         O  0.42317934  0.39216523  0.50364726    -0.77600
O36         O  0.41004627  0.32124003  0.03591402    -1.13700
O37         O  0.43275398  0.32057999  0.47453522    -0.72900
C38         C  0.40911800  0.29919828  0.46475367     0.97800
C39         C  0.38295922  0.26908506  0.09223950     0.94200
Al40       Al  0.38915357  0.35189165  0.06492438     1.55600
O41         O  0.43714704  0.24417642  0.01888147    -0.77500
C42         C  0.41011825  0.41818800  0.02246232     0.98400
C43         C  0.33630346  0.31880939  0.03107364     0.93300
O44         O  0.35114962  0.28422843  0.03269458    -0.82800
O45         O  0.14001893  0.22773453  0.03080238    -0.82300
C46         C  0.20742669  0.14961156  0.43028575     0.97100
O47         O  0.21485720  0.14675120  0.45933248    -0.71400
O48         O  0.22228810  0.21759969  0.48773936    -0.75000
Al49       Al  0.19610727  0.17056992  0.99723137     1.49000
C50         C  0.21617361  0.25541005  0.49296844     0.92300
O51         O  0.14992494  0.26245411  0.44495965    -0.81200
O52         O  0.10135526  0.16169308  0.47382147    -0.74800
Al53       Al  0.14640899  0.24259732  0.48778442     1.90100
O54         O  0.12601137  0.20808002  0.42459749    -0.73900
O55         O  0.15058467  0.10817020  0.46590406    -0.73700
O56         O  0.17869986  0.15962105  0.42227510    -0.79400
O57         O  0.17526395  0.12020668  0.00940619    -0.77600
O58         O  0.16153856  0.19179909  0.47810657    -1.13700
O59         O  0.18469276  0.19115924  0.03877818    -0.72900
C60         C  0.15970121  0.21000645  0.04923761     0.97800
C61         C  0.13389470  0.24590824  0.42290678     0.94200
Al62       Al  0.14093918  0.16183578  0.44904603     1.55600
O63         O  0.18736007  0.26794158  0.49655504    -0.77500
C64         C  0.16132324  0.09564921  0.49207414     0.98400
C65         C  0.08767846  0.19475084  0.48378358     0.93300
O66         O  0.10209707  0.22919992  0.48253190    -0.82800
O67         O  0.14160146  0.78872044  0.47641225    -0.82300
C68         C  0.20510051  0.86303518  0.07799966     0.97100
O69         O  0.21288983  0.86801107  0.04906782    -0.71400
O70         O  0.22390090  0.79982270  0.01704016    -0.75000
Al71       Al  0.19539149  0.84563426  0.01001512     1.49000
C72         C  0.21916435  0.76263002  0.00927950     0.92300
O73         O  0.15615544  0.75032415  0.06029493    -0.81200
O74         O  0.10035802  0.84803852  0.03365025    -0.74800
Al75       Al  0.14933580  0.77107404  0.01831333     1.90100
O76         O  0.12712833  0.80058551  0.08224129    -0.73900
O77         O  0.14676354  0.90457578  0.04422654    -0.73700
O78         O  0.17657447  0.85197546  0.08548235    -0.79400
O79         O  0.17272725  0.89613225  0.50126348    -0.77600
O80         O  0.16177909  0.82207648  0.02902381    -1.13700
O81         O  0.18479914  0.82756244  0.46898776    -0.72900
C82         C  0.16058125  0.80794028  0.45819414     0.97800
C83         C  0.13991606  0.76467505  0.08341153     0.94200
Al84       Al  0.13943308  0.84922958  0.05893511     1.55600
O85         O  0.19082871  0.74917490  0.00636531    -0.77500
C86         C  0.15760430  0.91888150  0.01866086     0.98400
C87         C  0.08891050  0.81401666  0.02355941     0.93300
O88         O  0.10478548  0.78048160  0.02645070    -0.82800
O89         O  0.12128493  0.28335540  0.28168163    -0.82300
C90         C  0.05861768  0.35889939  0.17843697     0.97100
O91         O  0.05064888  0.36423899  0.20724178    -0.71400
O92         O  0.04078488  0.29585183  0.23857162    -0.75000
Al93       Al  0.06764836  0.34214786  0.24641141     1.49000
C94         C  0.04633914  0.25808714  0.24457355     0.92300
O95         O  0.11234460  0.24787719  0.19621902    -0.81200
O96         O  0.16333283  0.34682518  0.22524853    -0.74800
Al97       Al  0.11597799  0.26820505  0.23888198     1.90100
O98         O  0.13967017  0.29990452  0.17601682    -0.73900
O99         O  0.11550103  0.40220586  0.21351681    -0.73700
O100        O  0.08768438  0.34900440  0.17115946    -0.79400
O101        O  0.08907554  0.39247025  0.25748485    -0.77600
O102        O  0.10244713  0.31924293  0.22820707    -1.13700
O103        O  0.07814019  0.32331391  0.28861238    -0.72900
C104        C  0.10215672  0.30316569  0.29961848     0.97800
C105        C  0.12923380  0.26323226  0.17407442     0.94200
Al106      Al  0.12468663  0.34728886  0.19891580     1.55600
O107        O  0.07484497  0.24482707  0.24787199    -0.77500
C108        C  0.10444872  0.41611071  0.23915534     0.98400
C109        C  0.17559025  0.31325201  0.23616802     0.93300
O110        O  0.16065537  0.27935001  0.23364926    -0.82800
O111        O  0.12828388  0.72923464  0.22902338    -0.82300
C112        C  0.06118803  0.64705120  0.32613643     0.97100
O113        O  0.05522480  0.64236282  0.29677572    -0.71400
O114        O  0.04590881  0.71151563  0.26586195    -0.75000
Al115      Al  0.07458581  0.66668542  0.25882407     1.49000
C116        C  0.05027762  0.74985353  0.26228024     0.92300
O117        O  0.11490409  0.75888603  0.31435855    -0.81200
O118        O  0.16663131  0.65893105  0.28606966    -0.74800
Al119      Al  0.12056720  0.74065049  0.27153497     1.90100
O120        O  0.14174536  0.70621691  0.33456103    -0.73900
O121        O  0.11833933  0.60498313  0.29435608    -0.73700
O122        O  0.08900497  0.65875342  0.33514793    -0.79400
O123        O  0.09829829  0.61767112  0.24792745    -0.77600
O124        O  0.10712085  0.68920972  0.27991632    -1.13700
O125        O  0.08789481  0.68793140  0.21769784    -0.72900
C126        C  0.11155434  0.71032155  0.20899845     0.97800
C127        C  0.13167787  0.74339568  0.33642595     0.94200
Al128      Al  0.12723498  0.65969207  0.30997960     1.55600
O129        O  0.07853263  0.76466438  0.26210299    -0.77500
C130        C  0.11009582  0.59230583  0.26747727     0.98400
C131        C  0.18037673  0.69193541  0.27687730     0.93300
O132        O  0.16567675  0.72687566  0.27727392    -0.82800
O133        O  0.37112194  0.22607848  0.23329458    -0.82300
C134        C  0.30908394  0.14319792  0.33355102     0.97100
O135        O  0.30044487  0.14112345  0.30484090    -0.71400
O136        O  0.29146169  0.21341362  0.27922597    -0.75000
Al137      Al  0.31690795  0.16735915  0.26700540     1.49000
C138        C  0.29668828  0.25127293  0.27394954     0.92300
O139        O  0.36376888  0.25484535  0.31997642    -0.81200
O140        O  0.41366150  0.15680791  0.28641699    -0.74800
Al141      Al  0.36651562  0.23796354  0.27658621     1.90100
O142        O  0.38976761  0.19983643  0.33811893    -0.73900
O143        O  0.36562533  0.10209309  0.29340306    -0.73700
O144        O  0.33834251  0.15113813  0.34035036    -0.79400
O145        O  0.33690599  0.11787012  0.25192620    -0.77600
O146        O  0.35264915  0.18661132  0.28515397    -1.13700
O147        O  0.32632569  0.19061436  0.22584639    -0.72900
C148        C  0.35076408  0.20976467  0.21512558     0.97800
C149        C  0.38033596  0.23717477  0.34136979     0.94200
Al150      Al  0.37494929  0.15489928  0.31230315     1.55600
O151        O  0.32512036  0.26389857  0.26964693    -0.77500
C152        C  0.35277654  0.09150882  0.26767840     0.98400
C153        C  0.42647932  0.19067157  0.27759720     0.93300
O154        O  0.41125045  0.22477765  0.27999418    -0.82800
O155        O  0.35639773  0.76910131  0.27017829    -0.82300
C156        C  0.30215914  0.86229371  0.17836269     0.97100
O157        O  0.29371680  0.84730054  0.20497465    -0.71400
O158        O  0.29760006  0.78969224  0.24978233    -0.75000
Al159      Al  0.31905661  0.84067586  0.24212870     1.49000
C160        C  0.29840507  0.75466678  0.23654667     0.92300
O161        O  0.37473005  0.75304291  0.18423037    -0.81200
O162        O  0.41599429  0.83678016  0.20655976    -0.74800
Al163      Al  0.36375679  0.76678366  0.22609128     1.90100
O164        O  0.37499717  0.81253448  0.15930281    -0.73900
O165        O  0.37671736  0.89929838  0.21835780    -0.73700
O166        O  0.33194805  0.87062819  0.17251714    -0.79400
O167        O  0.32954433  0.89792248  0.24103614    -0.77600
O168        O  0.35218643  0.81988397  0.21949317    -1.13700
O169        O  0.34360930  0.83441344  0.28090019    -0.72900
C170        C  0.35549404  0.79932670  0.28929740     0.97800
C171        C  0.37854151  0.77378043  0.15947436     0.94200
Al172      Al  0.37293825  0.85206403  0.19165284     1.55600
O173        O  0.32131165  0.74536167  0.21795697    -0.77500
C174        C  0.35452757  0.91730087  0.23341889     0.98400
C175        C  0.42561769  0.80846232  0.22542204     0.93300
O176        O  0.40660012  0.78082319  0.23531660    -0.82800
C177        C  0.35654359  0.96194152  0.24071498    -0.06000
C178        C  0.33629457  0.98984404  0.22442412    -0.33400
C179        C  0.33573326  0.03229420  0.23197523     0.35900
C180        C  0.35531442  0.04747300  0.25675553    -0.06300
C181        C  0.37606628  0.01925265  0.27262433    -0.33300
C182        C  0.37668997  0.97678584  0.26478492     0.35800
H183        H  0.32048899  0.97850842  0.20596432     0.16100
O184        O  0.31475641  0.05811882  0.21594084    -0.60800
H185        H  0.39135428  0.02990009  0.29169458     0.16100
O186        O  0.39628074  0.94985532  0.28141178    -0.60900
H187        H  0.38305886  0.94102522  0.29986121     0.43100
H188        H  0.32667479  0.06648045  0.19654836     0.43100
C189        C  0.21434772  0.69157019  0.26661858    -0.06000
C190        C  0.23768818  0.70300304  0.28867851    -0.33400
C191        C  0.26706967  0.71978370  0.27861006     0.35900
C192        C  0.27347653  0.72472380  0.24603695    -0.06300
C193        C  0.25181778  0.70849022  0.22388330    -0.33300
C194        C  0.22216268  0.69185109  0.23411548     0.35800
H195        H  0.23189134  0.70276842  0.31368823     0.16100
O196        O  0.28846457  0.73427422  0.30075955    -0.60800
H197        H  0.25644258  0.71228108  0.19880192     0.16100
O198        O  0.19968052  0.68014032  0.21211773    -0.59300
H199        H  0.19774749  0.64951774  0.21444563     0.43100
H200        H  0.27922449  0.76126066  0.30807922     0.43100
C201        C  0.02141485  0.77629885  0.25649167    -0.06000
C202        C  0.01750993  0.79612520  0.22700490    -0.33400
C203        C  0.48625512  0.80891218  0.21570429     0.35900
C204        C  0.45959999  0.80556725  0.23651610    -0.06300
C205        C  0.46490784  0.79103500  0.26746412    -0.33300
C206        C  0.49531056  0.77576600  0.27667576     0.35800
H207        H  0.03768850  0.79711386  0.21048547     0.16100
O208        O  0.48165461  0.82120623  0.18495573    -0.60800
H209        H  0.44473164  0.78848918  0.28387857     0.16100
O210        O  0.49884682  0.75809128  0.30606199    -0.60900
H211        H  0.48932294  0.72992237  0.30434061     0.43100
H212        H  0.98329572  0.85578428  0.18873926     0.43100
C213        C  0.20738347  0.31073923  0.25218546    -0.06000
C214        C  0.23566062  0.32525679  0.23736257    -0.33400
C215        C  0.26632222  0.30978741  0.24665948     0.35900
C216        C  0.26847943  0.27952893  0.27087261    -0.06300
C217        C  0.24069864  0.26941081  0.28803410    -0.33300
C218        C  0.21034516  0.28439747  0.27891140     0.35800
H219        H  0.23383838  0.34508682  0.21667580     0.16100
O220        O  0.29329586  0.32037690  0.22943441    -0.60800
H221        H  0.24205364  0.24644095  0.30685009     0.16100
O222        O  0.18331284  0.26840434  0.29345443    -0.60900
H223        H  0.18718947  0.26976087  0.31655973     0.43100
H224        H  0.29953652  0.34819445  0.23735769     0.43100
C225        C  0.01887189  0.22986194  0.24916161    -0.06000
C226        C  0.49356140  0.23150771  0.22763921    -0.33400
C227        C  0.46376690  0.21377837  0.23526584     0.35900
C228        C  0.45950425  0.19303188  0.26440165    -0.06300
C229        C  0.48635090  0.18693511  0.28421540    -0.33300
C230        C  0.01590468  0.20552659  0.27685471     0.35800
H231        H  0.49577637  0.24974050  0.20613637     0.16100
O232        O  0.43809327  0.21970239  0.21518916    -0.60800
H233        H  0.48324242  0.17208135  0.30704735     0.16100
O234        O  0.04071175  0.20352228  0.29835658    -0.60900
H235        H  0.05524755  0.18083972  0.29071181     0.43100
H236        H  0.43237103  0.24973482  0.21667488     0.43100
C237        C  0.11229075  0.54721726  0.25980382    -0.06000
C238        C  0.11271354  0.51774286  0.28448774    -0.33400
C239        C  0.11042114  0.47498666  0.27821061     0.35900
C240        C  0.10863664  0.46081813  0.24677908    -0.06300
C241        C  0.11000548  0.49010632  0.22204425    -0.33300
C242        C  0.11152293  0.53288319  0.22829997     0.35800
H243        H  0.11350669  0.52790362  0.30888660     0.16100
O244        O  0.11037486  0.44731912  0.30296909    -0.60800
H245        H  0.10877120  0.47989164  0.19767298     0.16100
O246        O  0.11139237  0.56032931  0.20338744    -0.60900
H247        H  0.13438267  0.56848888  0.20048301     0.43100
H248        H  0.08734995  0.44557688  0.30978629     0.43100
C249        C  0.27684488  0.86834570  0.15323266    -0.06000
C250        C  0.28610553  0.87532523  0.12157477    -0.33400
C251        C  0.26311125  0.87543667  0.09696645     0.35900
C252        C  0.22984763  0.86862890  0.10357709    -0.06300
C253        C  0.22046576  0.86389936  0.13540430    -0.33300
C254        C  0.24334063  0.86391592  0.15993152     0.35800
H255        H  0.31150602  0.87918180  0.11558554     0.16100
O256        O  0.27369021  0.88139241  0.06650576    -0.60800
H257        H  0.19518487  0.85907444  0.14145780     0.16100
O258        O  0.23253139  0.85825107  0.19034688    -0.60900
H259        H  0.22631017  0.88646219  0.19788285     0.43100
H260        H  0.28160595  0.85367671  0.05934215     0.43100
C261        C  0.15548990  0.80315310  0.42382166    -0.06000
C262        C  0.17980285  0.78350813  0.40587267    -0.33400
C263        C  0.17251964  0.76550691  0.37665222     0.35900
C264        C  0.14072933  0.76824966  0.36441459    -0.06300
C265        C  0.11729747  0.79195461  0.38071702    -0.33300
C266        C  0.12444889  0.80905945  0.41041606     0.35800
H267        H  0.20387945  0.77927264  0.41558972     0.16100
O268        O  0.19627196  0.74340147  0.36099127    -0.60800
H269        H  0.09289154  0.79490876  0.37143980     0.16100
O270        O  0.10052441  0.82977596  0.42685600    -0.60900
H271        H  0.10198662  0.85917855  0.41982836     0.43100
H272        H  0.20601350  0.76351543  0.34595553     0.43100
C273        C  0.13562285  0.74098212  0.11274433    -0.06000
C274        C  0.10532646  0.72330308  0.11963901    -0.33400
C275        C  0.09744970  0.71095125  0.15060989     0.35900
C276        C  0.12006583  0.71654303  0.17515314    -0.06300
C277        C  0.15070607  0.73324412  0.16765314    -0.33300
C278        C  0.15853781  0.74521294  0.13684517     0.35800
H279        H  0.08703919  0.72146522  0.10135258     0.16100
O280        O  0.06688165  0.69640637  0.15689892    -0.60800
H281        H  0.16821728  0.73930637  0.18603886     0.16100
O282        O  0.18737840  0.76498733  0.13114955    -0.60900
H283        H  0.20324060  0.74237746  0.12645338     0.43100
H284        H  0.05390396  0.72135445  0.16299720     0.43100
C285        C  0.15510800  0.96398718  0.01220259    -0.06000
C286        C  0.16330419  0.99219475  0.03612860    -0.33400
C287        C  0.16497632  0.03503497  0.02995394     0.35900
C288        C  0.15764673  0.05099134  0.50076845    -0.06300
C289        C  0.14863125  0.02231245  0.47727599    -0.33300
C290        C  0.14766735  0.97951005  0.48361319     0.35800
H291        H  0.16975915  0.98077212  0.05942948     0.16100
O292        O  0.17473196  0.06113681  0.05364333    -0.60800
H293        H  0.14314319  0.03287725  0.45352970     0.16100
O294        O  0.13871107  0.95254829  0.46015130    -0.60900
H295        H  0.15852949  0.94816866  0.44711989     0.43100
H296        H  0.15442415  0.07018481  0.06441540     0.43100
C297        C  0.15394339  0.21408633  0.08348807    -0.06000
C298        C  0.12268689  0.20735680  0.09594335    -0.33400
C299        C  0.11469650  0.21997466  0.12680133     0.35900
C300        C  0.13818429  0.23960007  0.14544705    -0.06300
C301        C  0.16994591  0.24384661  0.13358202    -0.33300
C302        C  0.17795318  0.23109946  0.10292777     0.35800
H303        H  0.10402611  0.19413553  0.08117908     0.16100
O304        O  0.08337340  0.21603602  0.13749812    -0.60800
H305        H  0.18817504  0.25947022  0.14753314     0.16100
O306        O  0.20820552  0.23977042  0.09105270    -0.60900
H307        H  0.22159714  0.21467999  0.09571650     0.43100
H308        H  0.07177623  0.24132915  0.12985517     0.43100
C309        C  0.10684388  0.29921129  0.33401691    -0.06000
C310        C  0.08457953  0.27564712  0.35128662    -0.33400
C311        C  0.09233111  0.26109276  0.38151283     0.35900
C312        C  0.12294192  0.26971742  0.39483960    -0.06300
C313        C  0.14383479  0.29703938  0.37893916    -0.33300
C314        C  0.13581224  0.31194822  0.34862852     0.35800
H315        H  0.06203164  0.26609584  0.34048816     0.16100
O316        O  0.07050923  0.23635818  0.39715065    -0.60800
H317        H  0.16715951  0.30465531  0.38905302     0.16100
O318        O  0.15711807  0.33718055  0.33281565    -0.60900
H319        H  0.15025102  0.36599992  0.33823666     0.43100
H320        H  0.05650289  0.25592064  0.40932822     0.43100
C321        C  0.28383542  0.13873168  0.35909258    -0.06000
C322        C  0.25096105  0.13343881  0.35085060    -0.33400
C323        C  0.22599422  0.13544211  0.37367758     0.35900
C324        C  0.23335435  0.14267614  0.40575330    -0.06300
C325        C  0.26631061  0.14555584  0.41427153    -0.33300
C326        C  0.29127918  0.14376488  0.39145831     0.35800
H327        H  0.24429905  0.12895827  0.32634920     0.16100
O328        O  0.19448995  0.12987154  0.36430087    -0.60800
H329        H  0.27285882  0.15074904  0.43872459     0.16100
O330        O  0.32283682  0.14762986  0.40119636    -0.60900
H331        H  0.32669568  0.17805795  0.40214983     0.43100
H332        H  0.18711063  0.15749362  0.35642659     0.43100
C333        C  0.49387246  0.22859279  0.01650098    -0.06000
C334        C  0.99665974  0.20286357  0.49027959    -0.33400
C335        C  0.02699026  0.18643453  0.48061492     0.35900
C336        C  0.05497953  0.19578030  0.49806293    -0.06300
C337        C  0.05174884  0.21882160  0.02680029    -0.33300
C338        C  0.02189548  0.23542925  0.03626669     0.35800
H339        H  0.47572164  0.19751985  0.47630487     0.16100
O340        O  0.02949357  0.16497837  0.45267823    -0.60800
H341        H  0.07318945  0.22735441  0.03992982     0.16100
O342        O  0.02075057  0.26165313  0.06185367    -0.60900
H343        H  0.01171105  0.24474832  0.07938893     0.43100
H344        H  0.03034425  0.18663546  0.43595174     0.43100
C345        C  0.30340027  0.31738619  0.01752686    -0.06000
C346        C  0.30038397  0.29724754  0.98825103    -0.33400
C347        C  0.27085172  0.28072812  0.97861573     0.35900
C348        C  0.24369238  0.28326142  0.99870189    -0.06300
C349        C  0.24563978  0.30689037  0.02664499    -0.33300
C350        C  0.27546378  0.32375885  0.03624687     0.35800
H351        H  0.32177867  0.29069454  0.97415073     0.16100
O352        O  0.26971545  0.25652667  0.45021126    -0.60800
H353        H  0.22489507  0.30890284  0.04244749     0.16100
O354        O  0.27769914  0.34257625  0.06523324    -0.60900
H355        H  0.28323053  0.31983213  0.08024762     0.43100
H356        H  0.26946607  0.27716547  0.43273085     0.43100
C357        C  0.48172240  0.36417879  0.10806800    -0.06000
C358        C  0.01448449  0.36411981  0.09848680    -0.33400
C359        C  0.03979654  0.36299141  0.12084989     0.35900
C360        C  0.03272785  0.36275350  0.15357735    -0.06300
C361        C  0.49987282  0.36104141  0.16311923    -0.33300
C362        C  0.47468065  0.36122510  0.14076033     0.35800
H363        H  0.02082921  0.36385991  0.07360084     0.16100
O364        O  0.07134014  0.36217189  0.11030146    -0.60800
H365        H  0.49346801  0.35816693  0.18790065     0.16100
O366        O  0.44325784  0.35808418  0.15134328    -0.60900
H367        H  0.43941494  0.32775372  0.15363954     0.43100
H368        H  0.07576844  0.33271924  0.10450060     0.43100
C369        C  0.35502801  0.21612681  0.18100387    -0.06000
C370        C  0.38332686  0.20141821  0.16587254    -0.33400
C371        C  0.39200956  0.21611247  0.13575290     0.35900
C372        C  0.37235997  0.24627889  0.12078266    -0.06300
C373        C  0.34282557  0.25840666  0.13510534    -0.33300
C374        C  0.33406716  0.24344802  0.16490169     0.35800
H375        H  0.39943844  0.17996811  0.17806480     0.16100
O376        O  0.42101599  0.20371526  0.12260588    -0.60800
H377        H  0.32710826  0.28118587  0.12376614     0.16100
O378        O  0.30665828  0.25902574  0.17936187    -0.60900
H379        H  0.28996290  0.23730451  0.17661152     0.43100
H380        H  0.41578389  0.17899840  0.10962621     0.43100
C381        C  0.38958933  0.25954147  0.37048040    -0.06000
C382        C  0.36696723  0.28508086  0.38627558    -0.33400
C383        C  0.37402900  0.30122546  0.41626049     0.35900
C384        C  0.40412590  0.29217323  0.43067690    -0.06300
C385        C  0.42761113  0.26940558  0.41384552    -0.33300
C386        C  0.42045904  0.25277273  0.38410703     0.35800
H387        H  0.34322888  0.29079242  0.37608764     0.16100
O388        O  0.35095561  0.32470293  0.43167537    -0.60800
H389        H  0.45083638  0.26220032  0.42464034     0.16100
O390        O  0.44373558  0.22960945  0.36858928    -0.60900
H391        H  0.44359207  0.20188637  0.37898833     0.43100
H392        H  0.35865547  0.35381528  0.43028356     0.43100
C393        C  0.48520776  0.63661491  0.39833571    -0.06000
C394        C  0.47703277  0.63600418  0.36606366    -0.33400
C395        C  0.00219889  0.63561802  0.34228801     0.35900
C396        C  0.03527662  0.63977901  0.35042098    -0.06300
C397        C  0.04345114  0.63968595  0.38268845    -0.33300
C398        C  0.01952228  0.63784614  0.40635438     0.35800
H399        H  0.45180077  0.63551167  0.35904904     0.16100
O400        O  0.49150713  0.63798419  0.31131781    -0.60800
H401        H  0.06861008  0.64207477  0.38980178     0.16100
O402        O  0.02911523  0.63922646  0.43734628    -0.60900
H403        H  0.03201068  0.60968580  0.44373973     0.43100
H404        H  0.49027389  0.60831959  0.30496898     0.43100
C405        C  0.49814365  0.77803685  0.98743458    -0.06000
C406        C  0.99886434  0.80707941  0.01022556    -0.33400
C407        C  0.02818500  0.82376747  0.02114173     0.35900
C408        C  0.05759618  0.81060102  0.00733167    -0.06300
C409        C  0.05618316  0.78770950  0.48049339    -0.33300
C410        C  0.02732821  0.77042597  0.47017966     0.35800
H411        H  0.97645888  0.81540637  0.02219358     0.16100
O412        O  0.02803673  0.84939369  0.04705521    -0.60800
H413        H  0.07850740  0.77810334  0.46890391     0.16100
O414        O  0.52859185  0.73939145  0.44602809    -0.60900
H415        H  0.51815019  0.75332585  0.42770182     0.43100
H416        H  0.03051417  0.83054172  0.06552267     0.43100
C417        C  0.30672749  0.69944179  0.48486733    -0.06000
C418        C  0.28060055  0.70042073  0.46377199    -0.33400
C419        C  0.25069409  0.71797476  0.47303642     0.35900
C420        C  0.24713437  0.73552498  0.00176424    -0.06300
C421        C  0.27188543  0.73039984  0.02397196    -0.33300
C422        C  0.30204926  0.71378320  0.51603792     0.35800
H423        H  0.28409047  0.69054478  0.43949237     0.16100
O424        O  0.22616547  0.72115901  0.45134458    -0.60800
H425        H  0.26894670  0.74282601  0.04763749     0.16100
O426        O  0.32699023  0.71239938  0.53734008    -0.60900
H427        H  0.32687596  0.68354491  0.54573997     0.43100
H428        H  0.21262996  0.69618968  0.45485066     0.43100
C429        C  0.40799996  0.54824059  0.49639913    -0.06000
C430        C  0.42031669  0.53559348  0.02607451    -0.33400
C431        C  0.41998891  0.49347061  0.03510604     0.35900
C432        C  0.40854085  0.46299689  0.01408794    -0.06300
C433        C  0.39522646  0.47546259  0.48495775    -0.33300
C434        C  0.39449483  0.51774220  0.47631119     0.35800
H435        H  0.43005510  0.55819802  0.04239248     0.16100
O436        O  0.43190660  0.48222527  0.06418249    -0.60800
H437        H  0.38532108  0.45254093  0.46898681     0.16100
O438        O  0.38043046  0.52871832  0.44812583    -0.60900
H439        H  0.39794877  0.52576813  0.43209632     0.43100
H440        H  0.45561628  0.47827757  0.06096711     0.43100
C441        C  0.38806015  0.76157046  0.38122159    -0.06000
C442        C  0.37034125  0.79907868  0.37844884    -0.33400
C443        C  0.36029744  0.81355461  0.34849730     0.35900
C444        C  0.36874245  0.79071161  0.32120442    -0.06300
C445        C  0.38893401  0.75528528  0.32437385    -0.33300
C446        C  0.39787865  0.74029919  0.35388028     0.35800
H447        H  0.36243183  0.81550516  0.39951406     0.16100
O448        O  0.34108849  0.84856579  0.34636700    -0.60800
H449        H  0.39672607  0.73757785  0.30385170     0.16100
O450        O  0.41553318  0.70391484  0.35583564    -0.60900
H451        H  0.39945097  0.68132682  0.35357065     0.43100
H452        H  0.31884616  0.83917460  0.35167221     0.43100
C453        C  0.40988923  0.71945938  0.07291894    -0.06000
C454        C  0.38507511  0.70028672  0.09021998    -0.33400
C455        C  0.37529898  0.71657719  0.11943805     0.35900
C456        C  0.38972063  0.75316038  0.13064984    -0.06300
C457        C  0.41571592  0.77081255  0.11407740    -0.33300
C458        C  0.42611225  0.75379593  0.08552157     0.35800
H459        H  0.37243214  0.67388430  0.08043697     0.16100
O460        O  0.35002774  0.69865477  0.13550558    -0.60800
H461        H  0.42755260  0.79839120  0.12302316     0.16100
O462        O  0.45028507  0.77303102  0.06878103    -0.60900
H463        H  0.47079518  0.76027470  0.07652593     0.43100
H464        H  0.36039208  0.67964650  0.15107664     0.43100
O465        O  0.39363688  0.72801299  0.52003374    -0.82300
C466        C  0.46024599  0.64342979  0.92315122     0.97100
O467        O  0.46710267  0.64017340  0.95220553    -0.71400
O468        O  0.47554939  0.71235351  0.97782961    -0.75000
Al469      Al  0.44851163  0.66664803  0.48889201     1.49000
C470        C  0.47024811  0.75023968  0.98354219     0.92300
O471        O  0.40589960  0.75866157  0.93605258    -0.81200
O472        O  0.35346878  0.66139703  0.96410580    -0.74800
Al473      Al  0.40050452  0.73986500  0.97837076     1.90100
O474        O  0.38194130  0.70464144  0.91476107    -0.73900
O475        O  0.40117631  0.60475173  0.95979026    -0.73700
O476        O  0.43168222  0.65316249  0.91480485    -0.79400
O477        O  0.42654362  0.61804708  0.50312151    -0.77600
O478        O  0.41457097  0.68824972  0.96947469    -1.13700
O479        O  0.43781057  0.69077531  0.52940686    -0.72900
C480        C  0.41346366  0.71164804  0.53897667     0.97800
C481        C  0.39249155  0.74141479  0.91280276     0.94200
Al482      Al  0.39372195  0.65828649  0.94075844     1.55600
O483        O  0.44176461  0.76350532  0.98789746    -0.77500
C484        C  0.41238879  0.59278697  0.98602667     0.98400
C485        C  0.34027234  0.69544153  0.97250574     0.93300
O486        O  0.35590228  0.72895156  0.97197721    -0.82800
O487        O  0.38946898  0.28229428  0.98434153    -0.82300
C488        C  0.45496537  0.36040369  0.58336849     0.97100
O489        O  0.46257231  0.36465920  0.55431166    -0.71400
O490        O  0.47126689  0.29514132  0.52446704    -0.75000
Al491      Al  0.44440588  0.34146277  0.51588885     1.49000
C492        C  0.46609253  0.25693414  0.52125785     0.92300
O493        O  0.39907698  0.25163148  0.57046650    -0.81200
O494        O  0.34960634  0.35172733  0.53911209    -0.74800
Al495      Al  0.39593181  0.26936830  0.52713371     1.90100
O496        O  0.37290266  0.30610361  0.58882391    -0.73900
O497        O  0.39903263  0.40555962  0.54834754    -0.73700
O498        O  0.42597508  0.35188407  0.59122135    -0.79400
O499        O  0.42331055  0.39252256  0.00392868    -0.77600
O500        O  0.40992111  0.32067420  0.53555340    -1.13700
O501        O  0.43225999  0.32099514  0.97479094    -0.72900
C502        C  0.40816059  0.30028733  0.96521291     0.97800
C503        C  0.38203832  0.26874490  0.59181874     0.94200
Al504      Al  0.38869872  0.35134549  0.56437555     1.55600
O505        O  0.43753888  0.24357533  0.51956493    -0.77500
C506        C  0.40997324  0.41780859  0.52220052     0.98400
C507        C  0.33636985  0.31827158  0.52984216     0.93300
O508        O  0.35124262  0.28367443  0.53146577    -0.82800
O509        O  0.14033197  0.22833828  0.53068467    -0.82300
C510        C  0.20672544  0.15016155  0.93014844     0.97100
O511        O  0.21423050  0.14665899  0.95912990    -0.71400
O512        O  0.22222498  0.21715940  0.98804848    -0.75000
Al513      Al  0.19650153  0.17097084  0.49731885     1.49000
C514        C  0.21621323  0.25484493  0.99389688     0.92300
O515        O  0.15005702  0.26295155  0.94539490    -0.81200
O516        O  0.10102940  0.16204309  0.97393696    -0.74800
Al517      Al  0.14632144  0.24259417  0.98812197     1.90100
O518        O  0.12549967  0.20910835  0.92493195    -0.73900
O519        O  0.15020940  0.10833629  0.96521061    -0.73700
O520        O  0.17807996  0.16063742  0.92224290    -0.79400
O521        O  0.17587910  0.12057822  0.50989975    -0.77600
O522        O  0.16124742  0.19185985  0.97815793    -1.13700
O523        O  0.18505678  0.19196727  0.53881699    -0.72900
C524        C  0.16007127  0.21089190  0.54922470     0.97800
C525        C  0.13363699  0.24687698  0.92339118     0.94200
Al526      Al  0.14047696  0.16240795  0.94896484     1.55600
O527        O  0.18739344  0.26745483  0.99736977    -0.77500
C528        C  0.16099914  0.09540982  0.99125199     0.98400
C529        C  0.08747098  0.19514149  0.98400178     0.93300
O530        O  0.10193199  0.22956869  0.98260250    -0.82800
O531        O  0.14082130  0.78750245  0.97626175    -0.82300
C532        C  0.20449889  0.86225905  0.57988644     0.97100
O533        O  0.21252781  0.86811174  0.55109983    -0.71400
O534        O  0.22393389  0.80029865  0.51872031    -0.75000
Al535      Al  0.19562084  0.84622852  0.51154846     1.49000
C536        C  0.21924416  0.76321106  0.51064557     0.92300
O537        O  0.15521214  0.75027624  0.56037363    -0.81200
O538        O  0.10028629  0.84891540  0.53423474    -0.74800
Al539      Al  0.14924240  0.77179437  0.51847116     1.90100
O540        O  0.12601318  0.80020023  0.58241522    -0.73900
O541        O  0.14698010  0.90488498  0.54590011    -0.73700
O542        O  0.17593771  0.85085029  0.58689466    -0.79400
O543        O  0.17236598  0.89540900  0.99959125    -0.77600
O544        O  0.16166107  0.82250387  0.52985664    -1.13700
O545        O  0.18377082  0.82655992  0.96798290    -0.72900
C546        C  0.15930598  0.80701521  0.95772247     0.97800
C547        C  0.13861669  0.76418795  0.58339192     0.94200
Al548      Al  0.13908659  0.84918774  0.55987038     1.55600
O549        O  0.19092558  0.74989058  0.50719262    -0.77500
C550        C  0.15792504  0.91945385  0.52043993     0.98400
C551        C  0.08868880  0.81523363  0.52364696     0.93300
O552        O  0.10452320  0.78152750  0.52571254    -0.82800
O553        O  0.12017884  0.28351806  0.78221220    -0.82300
C554        C  0.05786093  0.35966974  0.67889472     0.97100
O555        O  0.04970753  0.36450828  0.70771606    -0.71400
O556        O  0.03998010  0.29611021  0.73929596    -0.75000
Al557      Al  0.06676645  0.34258416  0.74695348     1.49000
C558        C  0.04559488  0.25819093  0.74474860     0.92300
O559        O  0.11210336  0.24868765  0.69630273    -0.81200
O560        O  0.16222367  0.34808052  0.72581750    -0.74800
Al561      Al  0.11526630  0.26878788  0.73917675     1.90100
O562        O  0.13915965  0.30109751  0.67643189    -0.73900
O563        O  0.11435678  0.40295889  0.71399614    -0.73700
O564        O  0.08692679  0.34979981  0.67164646    -0.79400
O565        O  0.08811712  0.39303496  0.75801147    -0.77600
O566        O  0.10158272  0.31983556  0.72865782    -1.13700
O567        O  0.07734669  0.32396772  0.78916634    -0.72900
C568        C  0.10124022  0.30361665  0.80017856     0.97800
C569        C  0.12898321  0.26434004  0.67425763     0.94200
Al570      Al  0.12377582  0.34819758  0.69942889     1.55600
O571        O  0.07414525  0.24491324  0.74771323    -0.77500
C572        C  0.10349922  0.41672533  0.73972986     0.98400
C573        C  0.17457909  0.31467113  0.73684627     0.93300
O574        O  0.15988255  0.28057616  0.73433179    -0.82800
O575        O  0.12872639  0.72709738  0.72866419    -0.82300
C576        C  0.06013588  0.64764200  0.82675872     0.97100
O577        O  0.05409429  0.64315150  0.79743293    -0.71400
O578        O  0.04523956  0.71256864  0.76682470    -0.75000
Al579      Al  0.07345504  0.66722054  0.75946431     1.49000
C580        C  0.04997291  0.75049642  0.76154272     0.92300
O581        O  0.11359616  0.76024599  0.81320218    -0.81200
O582        O  0.16616568  0.65983432  0.78722873    -0.74800
Al583      Al  0.12014932  0.74060026  0.77085139     1.90100
O584        O  0.13970044  0.70767670  0.83473869    -0.73900
O585        O  0.11791009  0.60569763  0.79485756    -0.73700
O586        O  0.08796054  0.65927453  0.83565510    -0.79400
O587        O  0.09671621  0.61780860  0.74871888    -0.77600
O588        O  0.10634021  0.68952450  0.78013171    -1.13700
O589        O  0.08663589  0.68818908  0.71808378    -0.72900
C590        C  0.11103142  0.70901987  0.70893421     0.97800
C591        C  0.12970986  0.74496951  0.83584198     0.94200
Al592      Al  0.12627512  0.66051585  0.81054972     1.55600
O593        O  0.07841999  0.76455509  0.75997586    -0.77500
C594        C  0.10916198  0.59276976  0.76818301     0.98400
C595        C  0.18011572  0.69285738  0.77841296     0.93300
O596        O  0.16513663  0.72753904  0.77796720    -0.82800
O597        O  0.36976643  0.22820882  0.73379166    -0.82300
C598        C  0.30763407  0.14432806  0.83329489     0.97100
O599        O  0.29898153  0.14252064  0.80457098    -0.71400
O600        O  0.28994863  0.21467136  0.77879227    -0.75000
Al601      Al  0.31560280  0.16874743  0.76685161     1.49000
C602        C  0.29527723  0.25263431  0.77412769     0.92300
O603        O  0.36194935  0.25586746  0.82077490    -0.81200
O604        O  0.41202199  0.15816117  0.78673451    -0.74800
Al605      Al  0.36498147  0.23948727  0.77722184     1.90100
O606        O  0.38801647  0.20074295  0.83848991    -0.73900
O607        O  0.36408799  0.10352902  0.79356520    -0.73700
O608        O  0.33682255  0.15223729  0.84023782    -0.79400
O609        O  0.33571827  0.11935862  0.75189257    -0.77600
O610        O  0.35114257  0.18801105  0.78534865    -1.13700
O611        O  0.32540428  0.19201805  0.72585895    -0.72900
C612        C  0.34975105  0.21157736  0.71540538     0.97800
C613        C  0.37847346  0.23795700  0.84208254     0.94200
Al614      Al  0.37334983  0.15612889  0.81247312     1.55600
O615        O  0.32371817  0.26538231  0.77032851    -0.77500
C616        C  0.35136366  0.09298910  0.76781104     0.98400
C617        C  0.42485918  0.19209659  0.77816583     0.93300
O618        O  0.40968226  0.22622574  0.78076629    -0.82800
O619        O  0.35932836  0.77075253  0.77083423    -0.82300
C620        C  0.30191935  0.86193638  0.68021806     0.97100
O621        O  0.29399244  0.84711306  0.70706477    -0.71400
O622        O  0.29896241  0.79058970  0.75283256    -0.75000
Al623      Al  0.31986849  0.84140948  0.74386274     1.49000
C624        C  0.29919686  0.75557311  0.73974375     0.92300
O625        O  0.37256049  0.75420756  0.68371935    -0.81200
O626        O  0.41631124  0.83983038  0.70813934    -0.74800
Al627      Al  0.36424192  0.76775451  0.72636851     1.90100
O628        O  0.37633393  0.81457092  0.66041931    -0.73900
O629        O  0.37615555  0.90116154  0.71953720    -0.73700
O630        O  0.33154990  0.87096440  0.67392864    -0.79400
O631        O  0.32915147  0.89888107  0.74226576    -0.77600
O632        O  0.35273671  0.82099626  0.72062054    -1.13700
O633        O  0.34520246  0.83572022  0.78205016    -0.72900
C634        C  0.35772749  0.80083443  0.79016279     0.97800
C635        C  0.37779675  0.77562909  0.65950550     0.94200
Al636      Al  0.37310431  0.85381711  0.69294285     1.55600
O637        O  0.32134270  0.74633016  0.72032927    -0.77500
C638        C  0.35375564  0.91879172  0.73446941     0.98400
C639        C  0.42636865  0.80996955  0.72533614     0.93300
O640        O  0.40775515  0.78097316  0.73353832    -0.82800
C641        C  0.35521902  0.96345064  0.74159546    -0.06000
C642        C  0.33370094  0.99070262  0.72622193    -0.33400
C643        C  0.33309198  0.03322223  0.73345932     0.35900
C644        C  0.35380716  0.04899299  0.75708854    -0.06300
C645        C  0.37568256  0.02141241  0.77211616    -0.33300
C646        C  0.37648313  0.97894831  0.76446197     0.35800
H647        H  0.31708724  0.97883694  0.70865623     0.16100
O648        O  0.31104109  0.05852804  0.71832929    -0.60800
H649        H  0.39184220  0.03260544  0.79029936     0.16100
O650        O  0.39743051  0.95265763  0.78008682    -0.60900
H651        H  0.38494061  0.94217702  0.79851516     0.43100
H652        H  0.32208110  0.06748196  0.69860034     0.43100
C653        C  0.21449150  0.69284162  0.76932246    -0.06000
C654        C  0.23695229  0.70600523  0.79171691    -0.33400
C655        C  0.26650511  0.72281171  0.78206769     0.35900
C656        C  0.27399567  0.72607327  0.74956981    -0.06300
C657        C  0.25327680  0.70813594  0.72732402    -0.33300
C658        C  0.22346005  0.69152032  0.73713315     0.35800
H659        H  0.23040621  0.70674296  0.81652434     0.16100
O660        O  0.28710161  0.73857581  0.80443741    -0.60800
H661        H  0.25874252  0.71050533  0.70230179     0.16100
O662        O  0.20191359  0.67809714  0.71483813    -0.59300
H663        H  0.20086812  0.64746868  0.71762940     0.43100
H664        H  0.27742130  0.76572050  0.81083425     0.43100
C665        C  0.02135401  0.77724200  0.75542355    -0.06000
C666        C  0.01707649  0.79526599  0.72534479    -0.33400
C667        C  0.48724690  0.81138666  0.71663836     0.35900
C668        C  0.46023611  0.80713562  0.73689492    -0.06300
C669        C  0.46513327  0.79186815  0.76770859    -0.33300
C670        C  0.49549593  0.77670698  0.77723278     0.35800
H671        H  0.03686675  0.79462255  0.70836275     0.16100
O672        O  0.48318756  0.82489322  0.68612136    -0.60800
H673        H  0.44470173  0.78879545  0.78375041     0.16100
O674        O  0.49869983  0.75867809  0.80653489    -0.60900
H675        H  0.48919171  0.73053051  0.80453291     0.43100
H676        H  0.98455432  0.85274831  0.68513371     0.43100
C677        C  0.20626614  0.31259651  0.75296937    -0.06000
C678        C  0.23450704  0.32717604  0.73811363    -0.33400
C679        C  0.26511856  0.31150888  0.74724416     0.35900
C680        C  0.26722050  0.28103364  0.77130642    -0.06300
C681        C  0.23953373  0.27100012  0.78859332    -0.33300
C682        C  0.20922646  0.28628230  0.77969367     0.35800
H683        H  0.23265934  0.34707995  0.71746743     0.16100
O684        O  0.29203263  0.32210150  0.72993676    -0.60800
H685        H  0.24090786  0.24788189  0.80730294     0.16100
O686        O  0.18218716  0.27044757  0.79432493    -0.60900
H687        H  0.18636933  0.27102601  0.81739540     0.43100
H688        H  0.30260534  0.34437483  0.74226944     0.43100
C689        C  0.01808246  0.22979345  0.74887387    -0.06000
C690        C  0.49211495  0.23310779  0.72864118    -0.33400
C691        C  0.46215479  0.21588842  0.73617712     0.35900
C692        C  0.45783666  0.19445123  0.76499688    -0.06300
C693        C  0.48468703  0.18733333  0.78461943    -0.33300
C694        C  0.01525601  0.20400887  0.77584052     0.35800
H695        H  0.49441040  0.25182574  0.70738742     0.16100
O696        O  0.43640496  0.22310400  0.71641502    -0.60800
H697        H  0.48150002  0.17192978  0.80723131     0.16100
O698        O  0.04048355  0.20005668  0.79673418    -0.60900
H699        H  0.05385224  0.17651109  0.78860107     0.43100
H700        H  0.43098431  0.25313784  0.71871893     0.43100
C701        C  0.11161231  0.54768326  0.76060626    -0.06000
C702        C  0.11189956  0.51818160  0.78528154    -0.33400
C703        C  0.10980102  0.47540193  0.77893132     0.35900
C704        C  0.10793656  0.46134667  0.74747440    -0.06300
C705        C  0.10966770  0.49066465  0.72278380    -0.33300
C706        C  0.11135383  0.53339480  0.72909693     0.35800
H707        H  0.11254635  0.52833036  0.80968868     0.16100
O708        O  0.11022739  0.44759059  0.80360091    -0.60800
H709        H  0.10867952  0.48051675  0.69838443     0.16100
O710        O  0.11204598  0.56086875  0.70421489    -0.60900
H711        H  0.13508324  0.56925011  0.70218149     0.43100
H712        H  0.08738931  0.44606034  0.81101536     0.43100
C713        C  0.27614140  0.86706455  0.65538700    -0.06000
C714        C  0.28446908  0.87931626  0.62442024    -0.33400
C715        C  0.26140472  0.87945757  0.59986956     0.35900
C716        C  0.22899624  0.86726999  0.60580108    -0.06300
C717        C  0.22039521  0.85690539  0.63705863    -0.33300
C718        C  0.24329716  0.85691872  0.66155332     0.35800
H719        H  0.30926127  0.88772721  0.61886948     0.16100
O720        O  0.27106222  0.89124890  0.57012470    -0.60800
H721        H  0.19579260  0.84762072  0.64261240     0.16100
O722        O  0.23325495  0.84543993  0.69125871    -0.60900
H723        H  0.22701652  0.87185952  0.70189076     0.43100
H724        H  0.28016810  0.86561872  0.56030372     0.43100
C725        C  0.15356148  0.80281154  0.92348979    -0.06000
C726        C  0.17788478  0.78432636  0.90495264    -0.33400
C727        C  0.17054941  0.76759649  0.87539754     0.35900
C728        C  0.13863603  0.77016204  0.86357044    -0.06300
C729        C  0.11510072  0.79297837  0.88045517    -0.33300
C730        C  0.12241048  0.80913729  0.91044219     0.35800
H731        H  0.20210298  0.78015462  0.91432264     0.16100
O732        O  0.19437805  0.74669566  0.85894635    -0.60800
H733        H  0.09059944  0.79588840  0.87141136     0.16100
O734        O  0.09867987  0.82954031  0.92737236    -0.60900
H735        H  0.09939045  0.85882172  0.91991661     0.43100
H736        H  0.20610640  0.76854387  0.84700687     0.43100
C737        C  0.13382662  0.73986830  0.61241895    -0.06000
C738        C  0.10264624  0.72557883  0.62016856    -0.33400
C739        C  0.09517686  0.71271794  0.65110894     0.35900
C740        C  0.11903059  0.71467937  0.67487967    -0.06300
C741        C  0.15052483  0.72773497  0.66648384    -0.33300
C742        C  0.15804142  0.73984780  0.63558657     0.35800
H743        H  0.08354951  0.72673388  0.60262121     0.16100
O744        O  0.06395734  0.70138197  0.65824402    -0.60800
H745        H  0.16906155  0.73091013  0.68431752     0.16100
O746        O  0.18813284  0.75588885  0.62913062    -0.60900
H747        H  0.19977725  0.73385836  0.61705702     0.43100
H748        H  0.05309899  0.72723234  0.66585294     0.43100
C749        C  0.15517874  0.96457332  0.51397196    -0.06000
C750        C  0.16249221  0.99314113  0.53796890    -0.33400
C751        C  0.16390657  0.03599946  0.53158027     0.35900
C752        C  0.15767387  0.05053569  0.99950289    -0.06300
C753        C  0.14805956  0.02217577  0.97598461    -0.33300
C754        C  0.14716418  0.97926794  0.98203631     0.35800
H755        H  0.16832872  0.98204063  0.56150980     0.16100
O756        O  0.17212467  0.06267755  0.55547198    -0.60800
H757        H  0.14204452  0.03308616  0.95244970     0.16100
O758        O  0.13790983  0.95259863  0.95849621    -0.60900
H759        H  0.15812234  0.94590555  0.94663644     0.43100
H760        H  0.15124860  0.07060568  0.56570540     0.43100
C761        C  0.15432908  0.21530335  0.58351473    -0.06000
C762        C  0.12328154  0.20764910  0.59616245    -0.33400
C763        C  0.11511095  0.22039191  0.62698346     0.35900
C764        C  0.13822299  0.24101449  0.64547198    -0.06300
C765        C  0.16980783  0.24631369  0.63338108    -0.33300
C766        C  0.17798090  0.23350961  0.60274016     0.35800
H767        H  0.10485961  0.19361019  0.58155020     0.16100
O768        O  0.08390530  0.21557251  0.63777534    -0.60800
H769        H  0.18775675  0.26272204  0.64715116     0.16100
O770        O  0.20793110  0.24323774  0.59061075    -0.60900
H771        H  0.22290170  0.22143141  0.59882812     0.43100
H772        H  0.07157626  0.23972612  0.62915804     0.43100
C773        C  0.10607243  0.30002957  0.83463973    -0.06000
C774        C  0.08375816  0.27697348  0.85227006    -0.33400
C775        C  0.09158748  0.26290984  0.88263205     0.35900
C776        C  0.12244438  0.27111327  0.89558628    -0.06300
C777        C  0.14331587  0.29817725  0.87941058    -0.33300
C778        C  0.13507497  0.31297044  0.84909603     0.35800
H779        H  0.06108470  0.26746175  0.84168843     0.16100
O780        O  0.06959058  0.23900441  0.89878237    -0.60800
H781        H  0.16676071  0.30569310  0.88930403     0.16100
O782        O  0.15617378  0.33831630  0.83312160    -0.60900
H783        H  0.15139042  0.36680907  0.84100120     0.43100
H784        H  0.05615225  0.25910986  0.91105940     0.43100
C785        C  0.28252490  0.13962938  0.85876330    -0.06000
C786        C  0.24958290  0.13566792  0.85046631    -0.33400
C787        C  0.22477809  0.13769156  0.87335579     0.35900
C788        C  0.23242348  0.14334198  0.90553759    -0.06300
C789        C  0.26542151  0.14487732  0.91408098    -0.33300
C790        C  0.29024153  0.14327813  0.89117333     0.35800
H791        H  0.24275119  0.13241872  0.82589376     0.16100
O792        O  0.19312301  0.13395719  0.86389573    -0.60800
H793        H  0.27213479  0.14893077  0.93862032     0.16100
O794        O  0.32190813  0.14598168  0.90085277    -0.60900
H795        H  0.32608537  0.17623854  0.90292524     0.43100
H796        H  0.18646531  0.16225015  0.85682552     0.43100
C797        C  0.49440928  0.22877156  0.51757802    -0.06000
C798        C  0.99641057  0.20219474  0.99138757    -0.33400
C799        C  0.02678486  0.18623537  0.98145983     0.35900
C800        C  0.05488173  0.19624354  0.99852450    -0.06300
C801        C  0.05171674  0.21790348  0.52652383    -0.33300
C802        C  0.02188133  0.23479084  0.53583140     0.35800
H803        H  0.47522674  0.19938194  0.97434083     0.16100
O804        O  0.02916647  0.16479787  0.95351157    -0.60800
H805        H  0.07307880  0.22582216  0.54000405     0.16100
O806        O  0.02051921  0.26036608  0.56178322    -0.60900
H807        H  0.01876707  0.24136592  0.58021217     0.43100
H808        H  0.03086898  0.18648378  0.93686763     0.43100
C809        C  0.30363279  0.31691766  0.51594265    -0.06000
C810        C  0.30075326  0.29540165  0.48724519    -0.33400
C811        C  0.27104323  0.27969674  0.47741645     0.35900
C812        C  0.24362764  0.28401893  0.49698064    -0.06300
C813        C  0.24548388  0.30911240  0.52418711    -0.33300
C814        C  0.27547147  0.32544992  0.53384769     0.35800
H815        H  0.32226963  0.28707405  0.47388032     0.16100
O816        O  0.26950129  0.25893840  0.95077699    -0.60800
H817        H  0.22450917  0.31254894  0.53956599     0.16100
O818        O  0.27755314  0.34568038  0.56228792    -0.60900
H819        H  0.28179690  0.32347861  0.57813665     0.43100
H820        H  0.26135758  0.27927027  0.93492762     0.43100
C821        C  0.48086552  0.36380805  0.60814720    -0.06000
C822        C  0.01459026  0.36710544  0.59867966    -0.33400
C823        C  0.03965021  0.36590777  0.62127941     0.35900
C824        C  0.03222161  0.36408683  0.65390522    -0.06300
C825        C  0.49853671  0.36451488  0.66337333    -0.33300
C826        C  0.47349265  0.36446891  0.64082713     0.35800
H827        H  0.02119384  0.36794110  0.57386392     0.16100
O828        O  0.07129651  0.36650265  0.61105780    -0.60800
H829        H  0.49187655  0.36459045  0.68818625     0.16100
O830        O  0.44187679  0.36502342  0.65119445    -0.60900
H831        H  0.43675502  0.33554637  0.65605020     0.43100
H832        H  0.07692816  0.33702561  0.60637496     0.43100
C833        C  0.35427741  0.21779188  0.68129237    -0.06000
C834        C  0.38246743  0.20259547  0.66624407    -0.33400
C835        C  0.39094643  0.21635879  0.63579867     0.35900
C836        C  0.37133927  0.24631152  0.62052432    -0.06300
C837        C  0.34190887  0.25890969  0.63483209    -0.33300
C838        C  0.33328063  0.24473767  0.66489001     0.35800
H839        H  0.39858852  0.18137635  0.67866029     0.16100
O840        O  0.41969118  0.20320748  0.62252086    -0.60800
H841        H  0.32618648  0.28147802  0.62326054     0.16100
O842        O  0.30591489  0.26063144  0.67923178    -0.60900
H843        H  0.28889127  0.23951818  0.67577338     0.43100
H844        H  0.41455031  0.17662531  0.61182438     0.43100
C845        C  0.38784857  0.25992480  0.87135965    -0.06000
C846        C  0.36604230  0.28726734  0.88656342    -0.33400
C847        C  0.37337598  0.30357419  0.91647012     0.35900
C848        C  0.40300183  0.29302712  0.93124934    -0.06300
C849        C  0.42564086  0.26820063  0.91508721    -0.33300
C850        C  0.41815745  0.25125274  0.88559828     0.35800
H851        H  0.34270817  0.29436106  0.87597853     0.16100
O852        O  0.35102948  0.32866760  0.93144989    -0.60800
H853        H  0.44839328  0.25963849  0.92628530     0.16100
O854        O  0.44058720  0.22582764  0.87096751    -0.60900
H855        H  0.43857011  0.19837260  0.88156860     0.43100
H856        H  0.35929213  0.35739555  0.92893688     0.43100
C857        C  0.48644150  0.63803174  0.89882109    -0.06000
C858        C  0.47842703  0.63432298  0.86665514    -0.33400
C859        C  0.00115257  0.63693806  0.84298251     0.35900
C860        C  0.03429191  0.64019066  0.85109704    -0.06300
C861        C  0.04256129  0.63878356  0.88335199    -0.33300
C862        C  0.01863779  0.63636366  0.90704271     0.35800
H863        H  0.45326493  0.63154373  0.85969919     0.16100
O864        O  0.49311478  0.63224421  0.81197788    -0.60800
H865        H  0.06777584  0.64042240  0.89042218     0.16100
O866        O  0.02825382  0.63607448  0.93805405    -0.60900
H867        H  0.03098503  0.60620492  0.94357589     0.43100
H868        H  0.49545764  0.60227290  0.80667660     0.43100
C869        C  0.49859533  0.77711466  0.48629915    -0.06000
C870        C  0.99849590  0.80751028  0.51182530    -0.33400
C871        C  0.02787476  0.82388032  0.52285480     0.35900
C872        C  0.05710343  0.81247144  0.50783030    -0.06300
C873        C  0.05698439  0.78398874  0.98100832    -0.33300
C874        C  0.02817751  0.76653996  0.97079613     0.35800
H875        H  0.97628315  0.81456124  0.52454610     0.16100
O876        O  0.02807767  0.84709475  0.55004792    -0.60800
H877        H  0.07940420  0.77332493  0.97013661     0.16100
O878        O  0.52763429  0.74204539  0.94594150    -0.60900
H879        H  0.51682994  0.75654650  0.92806899     0.43100
H880        H  0.03013067  0.82654536  0.56749356     0.43100
C881        C  0.30661500  0.69836506  0.98395857    -0.06000
C882        C  0.28112090  0.70106507  0.96219317    -0.33400
C883        C  0.25120745  0.71888655  0.97113153     0.35900
C884        C  0.24728490  0.73617291  0.50323093    -0.06300
C885        C  0.27273328  0.73275173  0.52486153    -0.33300
C886        C  0.30123625  0.71128358  0.01538614     0.35800
H887        H  0.28520521  0.69243846  0.93772127     0.16100
O888        O  0.22742967  0.72389988  0.94884167    -0.60800
H889        H  0.27030524  0.74628883  0.54822553     0.16100
O890        O  0.32566549  0.70868123  0.03720512    -0.60900
H891        H  0.32456240  0.67985885  0.04558161     0.43100
H892        H  0.21278736  0.69987193  0.95184360     0.43100
C893        C  0.40897909  0.54837047  0.99617766    -0.06000
C894        C  0.42049940  0.53522819  0.52579701    -0.33400
C895        C  0.42055579  0.49301393  0.53465604     0.35900
C896        C  0.40834577  0.46267777  0.51393933    -0.06300
C897        C  0.39669154  0.47553430  0.98453191    -0.33300
C898        C  0.39643170  0.51770829  0.97564220     0.35800
H899        H  0.43089393  0.55770571  0.54182211     0.16100
O900        O  0.43347667  0.48154231  0.56327585    -0.60800
H901        H  0.38753898  0.45247937  0.96823853     0.16100
O902        O  0.38397668  0.52837646  0.94668177    -0.60900
H903        H  0.40250213  0.52592396  0.93171309     0.43100
H904        H  0.45730420  0.48027462  0.55978733     0.43100
C905        C  0.38909129  0.76282010  0.88232921    -0.06000
C906        C  0.37123557  0.80021294  0.87946539    -0.33400
C907        C  0.36179344  0.81494154  0.84942195     0.35900
C908        C  0.37072715  0.79226054  0.82216247    -0.06300
C909        C  0.39102290  0.75697351  0.82549640    -0.33300
C910        C  0.39966028  0.74195580  0.85506810     0.35800
H911        H  0.36286601  0.81639779  0.90047623     0.16100
O912        O  0.34275906  0.85009871  0.84717591    -0.60800
H913        H  0.39919924  0.73943020  0.80503491     0.16100
O914        O  0.41784732  0.70598863  0.85716105    -0.60900
H915        H  0.40221219  0.68300117  0.85434895     0.43100
H916        H  0.32008629  0.83996920  0.84721918     0.43100
C917        C  0.40920215  0.72133242  0.57241419    -0.06000
C918        C  0.38482828  0.70170037  0.59004971    -0.33400
C919        C  0.37468928  0.71828991  0.61914370     0.35900
C920        C  0.38842881  0.75550402  0.63008355    -0.06300
C921        C  0.41376549  0.77390664  0.61294779    -0.33300
C922        C  0.42441678  0.75674145  0.58449537     0.35800
H923        H  0.37284590  0.67453895  0.58068114     0.16100
O924        O  0.34982522  0.69981793  0.63545711    -0.60800
H925        H  0.42513636  0.80201253  0.62151189     0.16100
O926        O  0.44810652  0.77653931  0.56747857    -0.60900
H927        H  0.46887519  0.76419636  0.57495554     0.43100
H928        H  0.36014835  0.67654327  0.64729545     0.43100
O929        O  0.89399008  0.72773346  0.02044265    -0.82300
C930        C  0.96019336  0.64284653  0.42275456     0.97100
O931        O  0.96729336  0.64026803  0.45180707    -0.71400
O932        O  0.97589569  0.71254085  0.47725026    -0.75000
Al933      Al  0.94861875  0.66617954  0.98935207     1.49000
C934        C  0.97061635  0.75041524  0.48297748     0.92300
O935        O  0.90655595  0.75833722  0.43528642    -0.81200
O936        O  0.85357723  0.66191415  0.46410202    -0.74800
Al937      Al  0.90089412  0.74009267  0.47770133     1.90100
O938        O  0.88218739  0.70434312  0.41434501    -0.73900
O939        O  0.90101703  0.60497913  0.45999069    -0.73700
O940        O  0.93155615  0.65238527  0.41452815    -0.79400
O941        O  0.92643962  0.61784160  0.00381985    -0.77600
O942        O  0.91481810  0.68834478  0.46908634    -1.13700
O943        O  0.93821116  0.69056292  0.02973398    -0.72900
C944        C  0.91388334  0.71139558  0.03931586     0.97800
C945        C  0.89302509  0.74095750  0.41215097     0.94200
Al946      Al  0.89374962  0.65820763  0.44062859     1.55600
O947        O  0.94213483  0.76365308  0.48731795    -0.77500
C948        C  0.91253872  0.59306250  0.48609363     0.98400
C949        C  0.84047623  0.69619362  0.47207533     0.93300
O950        O  0.85624111  0.72956856  0.47118315    -0.82800
O951        O  0.89033242  0.28231661  0.48383368    -0.82300
C952        C  0.95532966  0.36059316  0.08329739     0.97100
O953        O  0.96259708  0.36481276  0.05415793    -0.71400
O954        O  0.97097583  0.29525555  0.02441262    -0.75000
Al955      Al  0.94393244  0.34142040  0.01602579     1.49000
C956        C  0.96585573  0.25701350  0.02144991     0.92300
O957        O  0.89963986  0.25190576  0.07147010    -0.81200
O958        O  0.84929155  0.35135795  0.04015456    -0.74800
Al959      Al  0.89577992  0.26921277  0.02813668     1.90100
O960        O  0.87334410  0.30626286  0.08987839    -0.73900
O961        O  0.89877518  0.40545710  0.04879075    -0.73700
O962        O  0.92639081  0.35220432  0.09146845    -0.79400
O963        O  0.92374906  0.39281502  0.50338792    -0.77600
O964        O  0.90972408  0.32063821  0.03615477    -1.13700
O965        O  0.93304363  0.32122688  0.47447918    -0.72900
C966        C  0.90913733  0.30029702  0.46480853     0.97800
C967        C  0.88266510  0.26898523  0.09288138     0.94200
Al968      Al  0.88874318  0.35137444  0.06507343     1.55600
O969        O  0.93732426  0.24353793  0.02010688    -0.77500
C970        C  0.90953212  0.41767833  0.02257804     0.98400
C971        C  0.83608756  0.31769402  0.03120550     0.93300
O972        O  0.85109044  0.28321965  0.03305555    -0.82800
O973        O  0.63989680  0.22598907  0.03070397    -0.82300
C974        C  0.70764650  0.15022690  0.43096442     0.97100
O975        O  0.71497971  0.14721424  0.46002596    -0.71400
O976        O  0.72241002  0.21771680  0.48899756    -0.75000
Al977      Al  0.69603517  0.16927235  0.99692732     1.49000
C978        C  0.71629219  0.25552372  0.49422381     0.92300
O979        O  0.65010376  0.26299753  0.44558484    -0.81200
O980        O  0.60150787  0.16197762  0.47417653    -0.74800
Al981      Al  0.64647724  0.24290910  0.48840993     1.90100
O982        O  0.62614215  0.20873525  0.42514540    -0.73900
O983        O  0.65084498  0.10857099  0.46589449    -0.73700
O984        O  0.67899229  0.16046972  0.42284189    -0.79400
O985        O  0.67500727  0.11920672  0.00936641    -0.77600
O986        O  0.66162755  0.19213913  0.47867758    -1.13700
O987        O  0.68497289  0.19022324  0.03849446    -0.72900
C988        C  0.65989305  0.20875021  0.04907754     0.97800
C989        C  0.63402993  0.24655863  0.42350318     0.94200
Al990      Al  0.64113473  0.16238372  0.44943021     1.55600
O991        O  0.68744751  0.26815523  0.49741296    -0.77500
C992        C  0.66149233  0.09575186  0.49200110     0.98400
C993        C  0.58780889  0.19496914  0.48426913     0.93300
O994        O  0.60216429  0.22947425  0.48300361    -0.82800
O995        O  0.64110090  0.78772620  0.47590211    -0.82300
C996        C  0.70483331  0.86178899  0.07904776     0.97100
O997        O  0.71274483  0.86724582  0.05019994    -0.71400
O998        O  0.72358361  0.79909707  0.01817865    -0.75000
Al999      Al  0.69555009  0.84509877  0.01087105     1.49000
C1000       C  0.71884127  0.76206453  0.00999492     0.92300
O1001       O  0.65519630  0.74931166  0.05978611    -0.81200
O1002       O  0.60028696  0.84810883  0.03418382    -0.74800
Al1003     Al  0.64894615  0.77093991  0.01796552     1.90100
O1004       O  0.62660796  0.79950175  0.08228026    -0.73900
O1005       O  0.64696315  0.90390460  0.04508165    -0.73700
O1006       O  0.67631113  0.85044174  0.08622379    -0.79400
O1007       O  0.67231149  0.89581729  0.49991096    -0.77600
O1008       O  0.66159876  0.82159634  0.02934630    -1.13700
O1009       O  0.68378763  0.82728676  0.46781961    -0.72900
C1010       C  0.65949787  0.80745052  0.45742387     0.97800
C1011       C  0.63914899  0.76343326  0.08309311     0.94200
Al1012     Al  0.63928970  0.84843738  0.05945338     1.55600
O1013       O  0.69051284  0.74885645  0.00635442    -0.77500
C1014       C  0.65782076  0.91829350  0.01952883     0.98400
C1015       C  0.58855996  0.81452782  0.02362895     0.93300
O1016       O  0.60431872  0.78076719  0.02561637    -0.82800
O1017       O  0.62125834  0.28228494  0.28179841    -0.82300
C1018       C  0.55872582  0.35852446  0.17866801     0.97100
O1019       O  0.55082764  0.36367605  0.20751444    -0.71400
O1020       O  0.54109689  0.29543273  0.23914484    -0.75000
Al1021     Al  0.56802241  0.34175537  0.24665338     1.49000
C1022       C  0.54674558  0.25749722  0.24443133     0.92300
O1023       O  0.61304723  0.24770378  0.19597033    -0.81200
O1024       O  0.66337215  0.34692561  0.22527557    -0.74800
Al1025     Al  0.61633862  0.26775022  0.23875469     1.90100
O1026       O  0.64019039  0.29990025  0.17593466    -0.73900
O1027       O  0.61544183  0.40195891  0.21336037    -0.73700
O1028       O  0.58775530  0.34857632  0.17123965    -0.79400
O1029       O  0.58953865  0.39206354  0.25755757    -0.77600
O1030       O  0.60271650  0.31883458  0.22825710    -1.13700
O1031       O  0.57869610  0.32317581  0.28879501    -0.72900
C1032       C  0.60243503  0.30252837  0.29977539     0.97800
C1033       C  0.62987332  0.26320654  0.17386238     0.94200
Al1034     Al  0.62482256  0.34707002  0.19891005     1.55600
O1035       O  0.57526713  0.24410730  0.24719638    -0.77500
C1036       C  0.60469624  0.41577699  0.23912689     0.98400
C1037       C  0.67567280  0.31353027  0.23644645     0.93300
O1038       O  0.66096924  0.27944161  0.23393320    -0.82800
O1039       O  0.62877932  0.72684336  0.22860036    -0.82300
C1040       C  0.56013093  0.64685401  0.32618063     0.97100
O1041       O  0.55415034  0.64236102  0.29682457    -0.71400
O1042       O  0.54541925  0.71160804  0.26601610    -0.75000
Al1043     Al  0.57371268  0.66634298  0.25887940     1.49000
C1044       C  0.55011629  0.74965240  0.26126696     0.92300
O1045       O  0.61363817  0.75900065  0.31330210    -0.81200
O1046       O  0.66607185  0.65870660  0.28679510    -0.74800
Al1047     Al  0.62021412  0.73980191  0.27084102     1.90100
O1048       O  0.63994079  0.70646265  0.33458951    -0.73900
O1049       O  0.61785763  0.60470709  0.29440557    -0.73700
O1050       O  0.58797478  0.65829333  0.33517967    -0.79400
O1051       O  0.59703127  0.61696361  0.24816357    -0.77600
O1052       O  0.60643423  0.68863871  0.27979507    -1.13700
O1053       O  0.58721693  0.68726190  0.21759887    -0.72900
C1054       C  0.61152299  0.70842538  0.20868944     0.97800
C1055       C  0.62979138  0.74367973  0.33588800     0.94200
Al1056     Al  0.62630184  0.65945202  0.31017326     1.55600
O1057       O  0.57852229  0.76388072  0.26015615    -0.77500
C1058       C  0.60937037  0.59187449  0.26762700     0.98400
C1059       C  0.68000207  0.69170848  0.27794398     0.93300
O1060       O  0.66516230  0.72650241  0.27780642    -0.82800
O1061       O  0.87037204  0.22690184  0.23401114    -0.82300
C1062       C  0.80901726  0.14333299  0.33426200     0.97100
O1063       O  0.80015814  0.14161617  0.30559707    -0.71400
O1064       O  0.79093904  0.21370919  0.27967895    -0.75000
Al1065     Al  0.81648801  0.16765073  0.26767000     1.49000
C1066       C  0.79626423  0.25161575  0.27473342     0.92300
O1067       O  0.86347860  0.25482910  0.32081509    -0.81200
O1068       O  0.91330155  0.15713169  0.28673623    -0.74800
Al1069     Al  0.86603767  0.23833107  0.27737879     1.90100
O1070       O  0.88962631  0.19977434  0.33860014    -0.73900
O1071       O  0.86535118  0.10236527  0.29395717    -0.73700
O1072       O  0.83831596  0.15112305  0.34096543    -0.79400
O1073       O  0.83639722  0.11818559  0.25267226    -0.77600
O1074       O  0.85225385  0.18689858  0.28578920    -1.13700
O1075       O  0.82593153  0.19070891  0.22649958    -0.72900
C1076       C  0.85018672  0.21025911  0.21582664     0.97800
C1077       C  0.88015193  0.23703577  0.34205391     0.94200
Al1078     Al  0.87472831  0.15506233  0.31278424     1.55600
O1079       O  0.82471437  0.26427293  0.27079718    -0.77500
C1080       C  0.85227718  0.09181520  0.26836357     0.98400
C1081       C  0.92604655  0.19107249  0.27798450     0.93300
O1082       O  0.91077473  0.22513280  0.28048522    -0.82800
O1083       O  0.85841851  0.76958006  0.27051773    -0.82300
C1084       C  0.80189239  0.86133627  0.17967546     0.97100
O1085       O  0.79366615  0.84635879  0.20641064    -0.71400
O1086       O  0.79833392  0.78974007  0.25231774    -0.75000
Al1087     Al  0.81935511  0.84052322  0.24341498     1.49000
C1088       C  0.79859234  0.75478842  0.23912744     0.92300
O1089       O  0.87211815  0.75335103  0.18354710    -0.81200
O1090       O  0.91597035  0.83855258  0.20845626    -0.74800
Al1091     Al  0.86358659  0.76670060  0.22608260     1.90100
O1092       O  0.87635442  0.81379734  0.16044305    -0.73900
O1093       O  0.87599265  0.89998376  0.21971734    -0.73700
O1094       O  0.83161369  0.87023618  0.17367398    -0.79400
O1095       O  0.82871407  0.89802393  0.24188980    -0.77600
O1096       O  0.85230265  0.82001742  0.22036869    -1.13700
O1097       O  0.84461786  0.83469603  0.28166401    -0.72900
C1098       C  0.85712324  0.79977447  0.28975902     0.97800
C1099       C  0.87769574  0.77487177  0.15947646     0.94200
Al1100     Al  0.87297506  0.85284673  0.19296909     1.55600
O1101       O  0.82071954  0.74563781  0.21969594    -0.77500
C1102       C  0.85352530  0.91774660  0.23444270     0.98400
C1103       C  0.92581344  0.80847126  0.22554124     0.93300
O1104       O  0.90705662  0.77953413  0.23350626    -0.82800
C1105       C  0.85525632  0.96231993  0.24178665    -0.06000
C1106       C  0.83439559  0.99004357  0.22606739    -0.33400
C1107       C  0.83412748  0.03252497  0.23342916     0.35900
C1108       C  0.85451410  0.04780926  0.25753464    -0.06300
C1109       C  0.87579595  0.01974576  0.27286110    -0.33300
C1110       C  0.87625040  0.97730279  0.26508657     0.35800
H1111       H  0.81804033  0.97858920  0.20811452     0.16100
O1112       O  0.81274874  0.05830702  0.21785819    -0.60800
H1113       H  0.89171869  0.03052940  0.29138395     0.16100
O1114       O  0.89658975  0.95052437  0.28099544    -0.60900
H1115       H  0.88377496  0.94061918  0.29939733     0.43100
H1116       H  0.82445741  0.06735729  0.19852454     0.43100
C1117       C  0.71425290  0.69154432  0.26861934    -0.06000
C1118       C  0.73685020  0.70424794  0.29102566    -0.33400
C1119       C  0.76626465  0.72137393  0.28136835     0.35900
C1120       C  0.77351956  0.72516697  0.24886046    -0.06300
C1121       C  0.75270284  0.70760084  0.22654905    -0.33300
C1122       C  0.72294572  0.69088519  0.23635910     0.35800
H1123       H  0.73044056  0.70458089  0.31588200     0.16100
O1124       O  0.78690224  0.73700394  0.30375512    -0.60800
H1125       H  0.75800727  0.71042895  0.20152107     0.16100
O1126       O  0.70116846  0.67805479  0.21408243    -0.59300
H1127       H  0.70292501  0.64722804  0.21400175     0.43100
H1128       H  0.77702862  0.76387544  0.31053549     0.43100
C1129       C  0.52148074  0.77637508  0.25530068    -0.06000
C1130       C  0.51712047  0.79452620  0.22528533    -0.33400
C1131       C  0.98671314  0.81050937  0.21721242     0.35900
C1132       C  0.95960006  0.80527535  0.23719898    -0.06300
C1133       C  0.96436062  0.78894513  0.26771487    -0.33300
C1134       C  0.99473902  0.77386854  0.27717432     0.35800
H1135       H  0.53688803  0.79402653  0.20827452     0.16100
O1136       O  0.98281528  0.82500441  0.18693222    -0.60800
H1137       H  0.94385741  0.78510456  0.28354517     0.16100
O1138       O  0.99782629  0.75477158  0.30609561    -0.60900
H1139       H  0.98936844  0.72621642  0.30314337     0.43100
H1140       H  0.48985578  0.85011142  0.18387176     0.43100
C1141       C  0.70731303  0.31145380  0.25272410    -0.06000
C1142       C  0.73564660  0.32570242  0.23786270    -0.33400
C1143       C  0.76620305  0.31010877  0.24725288     0.35900
C1144       C  0.76819967  0.28000853  0.27159770    -0.06300
C1145       C  0.74041094  0.27025206  0.28882461    -0.33300
C1146       C  0.71013971  0.28546264  0.27966251     0.35800
H1147       H  0.73392164  0.34530252  0.21704124     0.16100
O1148       O  0.79319180  0.32038680  0.22995321    -0.60800
H1149       H  0.74168700  0.24739941  0.30772762     0.16100
O1150       O  0.68302092  0.26990263  0.29431785    -0.60900
H1151       H  0.68720573  0.27045052  0.31739472     0.43100
H1152       H  0.80316761  0.34373418  0.24160649     0.43100
C1153       C  0.51936180  0.22914561  0.24883645    -0.06000
C1154       C  0.99301958  0.23220557  0.22801246    -0.33400
C1155       C  0.96323770  0.21449383  0.23569382     0.35900
C1156       C  0.95904988  0.19359640  0.26477215    -0.06300
C1157       C  0.98591269  0.18759378  0.28457754    -0.33300
C1158       C  0.51639344  0.20470897  0.27646206     0.35800
H1159       H  0.99517722  0.25044266  0.20650687     0.16100
O1160       O  0.93748560  0.22069269  0.21576635    -0.60800
H1161       H  0.98282771  0.17274007  0.30741322     0.16100
O1162       O  0.54130769  0.20239105  0.29783080    -0.60900
H1163       H  0.55455004  0.17793986  0.29118053     0.43100
H1164       H  0.93152108  0.25058927  0.21782704     0.43100
C1165       C  0.61199852  0.54683521  0.25995368    -0.06000
C1166       C  0.61224554  0.51733840  0.28461694    -0.33400
C1167       C  0.61040002  0.47456491  0.27826334     0.35900
C1168       C  0.60893624  0.46045243  0.24679967    -0.06300
C1169       C  0.61063285  0.48977547  0.22210776    -0.33300
C1170       C  0.61197599  0.53255500  0.22844036     0.35800
H1171       H  0.61262829  0.52748020  0.30903289     0.16100
O1172       O  0.61056191  0.44681843  0.30297363    -0.60800
H1173       H  0.60985358  0.47960423  0.19770527     0.16100
O1174       O  0.61258569  0.56009947  0.20360547    -0.60900
H1175       H  0.63592412  0.56377844  0.19855822     0.43100
H1176       H  0.58756636  0.44481206  0.30982956     0.43100
C1177       C  0.77637825  0.86685053  0.15461740    -0.06000
C1178       C  0.78527702  0.87659952  0.12328072    -0.33400
C1179       C  0.76228914  0.87681121  0.09864680     0.35900
C1180       C  0.72939676  0.86717245  0.10486973    -0.06300
C1181       C  0.72028311  0.85958222  0.13645431    -0.33300
C1182       C  0.74311936  0.85953825  0.16101637     0.35800
H1183       H  0.81042710  0.88283052  0.11752872     0.16100
O1184       O  0.77249707  0.88600625  0.06854116    -0.60800
H1185       H  0.69527706  0.85252628  0.14225304     0.16100
O1186       O  0.73253568  0.85091842  0.19109968    -0.60900
H1187       H  0.72735953  0.87843680  0.20058144     0.43100
H1188       H  0.78147019  0.85949265  0.06004585     0.43100
C1189       C  0.65368305  0.80313885  0.42313509    -0.06000
C1190       C  0.67811421  0.78517864  0.40439444    -0.33400
C1191       C  0.67067524  0.76749355  0.37515409     0.35900
C1192       C  0.63856974  0.76889663  0.36368777    -0.06300
C1193       C  0.61484995  0.79121895  0.38068715    -0.33300
C1194       C  0.62224311  0.80815093  0.41039619     0.35800
H1195       H  0.70254445  0.78209446  0.41343046     0.16100
O1196       O  0.69467738  0.74690752  0.35870317    -0.60800
H1197       H  0.59019532  0.79325860  0.37191827     0.16100
O1198       O  0.59832170  0.82811179  0.42735915    -0.60900
H1199       H  0.59938041  0.85767504  0.42064993     0.43100
H1200       H  0.70119272  0.76636054  0.34161966     0.43100
C1201       C  0.63495313  0.73926589  0.11228148    -0.06000
C1202       C  0.60456286  0.72205125  0.11942866    -0.33400
C1203       C  0.59703159  0.70915741  0.15036163     0.35900
C1204       C  0.61998393  0.71407890  0.17471183    -0.06300
C1205       C  0.65087951  0.72978285  0.16686781    -0.33300
C1206       C  0.65845009  0.74205151  0.13603228     0.35800
H1207       H  0.58598584  0.72088905  0.10138456     0.16100
O1208       O  0.56652040  0.69455141  0.15681246    -0.60800
H1209       H  0.66880661  0.73486507  0.18505061     0.16100
O1210       O  0.68769789  0.76074428  0.13010442    -0.60900
H1211       H  0.70065648  0.73991500  0.11805514     0.43100
H1212       H  0.55356329  0.71944889  0.16306422     0.43100
C1213       C  0.65495373  0.96331131  0.01296298    -0.06000
C1214       C  0.66245576  0.99180963  0.03690974    -0.33400
C1215       C  0.66371900  0.03463977  0.03058360     0.35900
C1216       C  0.65805653  0.05093583  0.50024586    -0.06300
C1217       C  0.64910235  0.02258576  0.47648229    -0.33300
C1218       C  0.64813972  0.97970342  0.48246147     0.35800
H1219       H  0.66862514  0.98066775  0.06036043     0.16100
O1220       O  0.67245732  0.06118976  0.05437628    -0.60800
H1221       H  0.64367666  0.03348251  0.45280707     0.16100
O1222       O  0.63952798  0.95305603  0.45866895    -0.60900
H1223       H  0.65993860  0.94705449  0.44692373     0.43100
H1224       H  0.65194057  0.06806174  0.06566982     0.43100
C1225       C  0.65439267  0.21316145  0.08334963    -0.06000
C1226       C  0.62323592  0.20642012  0.09601336    -0.33400
C1227       C  0.61527626  0.21967705  0.12672144     0.35900
C1228       C  0.63877050  0.23968392  0.14513206    -0.06300
C1229       C  0.67045178  0.24402229  0.13306643    -0.33300
C1230       C  0.67837975  0.23083649  0.10248280     0.35800
H1231       H  0.60456725  0.19282568  0.08145888     0.16100
O1232       O  0.58393172  0.21608539  0.13743611    -0.60800
H1233       H  0.68866910  0.25999913  0.14679486     0.16100
O1234       O  0.70847195  0.23975970  0.09032844    -0.60900
H1235       H  0.72194668  0.21461124  0.09456723     0.43100
H1236       H  0.57215907  0.24057954  0.12863643     0.43100
C1237       C  0.60714020  0.29876333  0.33421858    -0.06000
C1238       C  0.58484192  0.27544807  0.35164734    -0.33400
C1239       C  0.59243134  0.26161939  0.38211540     0.35900
C1240       C  0.62303687  0.27037060  0.39541585    -0.06300
C1241       C  0.64390699  0.29756861  0.37935414    -0.33300
C1242       C  0.63590043  0.31209549  0.34891499     0.35800
H1243       H  0.56233552  0.26568366  0.34087589     0.16100
O1244       O  0.57043855  0.23749025  0.39807251    -0.60800
H1245       H  0.66716852  0.30545014  0.38948181     0.16100
O1246       O  0.65696658  0.33768815  0.33313601    -0.60900
H1247       H  0.64959182  0.36639309  0.33829277     0.43100
H1248       H  0.55653368  0.25749463  0.40995162     0.43100
C1249       C  0.78393539  0.13870751  0.35987695    -0.06000
C1250       C  0.75106559  0.13344719  0.35167707    -0.33400
C1251       C  0.72614971  0.13571228  0.37449018     0.35900
C1252       C  0.73356774  0.14305578  0.40652335    -0.06300
C1253       C  0.76653509  0.14570396  0.41505601    -0.33300
C1254       C  0.79147411  0.14372547  0.39222332     0.35800
H1255       H  0.74435200  0.12891125  0.32719563     0.16100
O1256       O  0.69461533  0.13040682  0.36512324    -0.60800
H1257       H  0.77310593  0.15090801  0.43950286     0.16100
O1258       O  0.82307014  0.14743130  0.40189859    -0.60900
H1259       H  0.82685924  0.17783578  0.40337755     0.43100
H1260       H  0.68738134  0.15809224  0.35724633     0.43100
C1261       C  0.99419601  0.22894335  0.01769134    -0.06000
C1262       C  0.49673045  0.20219048  0.49118153    -0.33400
C1263       C  0.52713256  0.18618214  0.48136340     0.35900
C1264       C  0.55514352  0.19586307  0.49867343    -0.06300
C1265       C  0.55105581  0.21616518  0.02639589    -0.33300
C1266       C  0.52127772  0.23320364  0.03578592     0.35800
H1267       H  0.97568941  0.19853622  0.47528742     0.16100
O1268       O  0.52965698  0.16505040  0.45329102    -0.60800
H1269       H  0.57238566  0.22334856  0.04015684     0.16100
O1270       O  0.51992039  0.25788274  0.06222668    -0.60900
H1271       H  0.51676605  0.23836119  0.08015221     0.43100
H1272       H  0.53093147  0.18692272  0.43674994     0.43100
C1273       C  0.80334955  0.31585678  0.01724442    -0.06000
C1274       C  0.80076511  0.29444244  0.98845617    -0.33400
C1275       C  0.77127965  0.27809070  0.97854391     0.35900
C1276       C  0.74372134  0.28180604  0.99800638    -0.06300
C1277       C  0.74527386  0.30668925  0.02535583    -0.33300
C1278       C  0.77504491  0.32357762  0.03515154     0.35800
H1279       H  0.82239146  0.28684503  0.97500165     0.16100
O1280       O  0.76927289  0.25837651  0.45087945    -0.60800
H1281       H  0.72420226  0.30973473  0.04065209     0.16100
O1282       O  0.77677939  0.34381633  0.06361170    -0.60900
H1283       H  0.78095358  0.32163927  0.07949504     0.43100
H1284       H  0.76458721  0.27921614  0.43412725     0.43100
C1285       C  0.98154287  0.36386793  0.10781480    -0.06000
C1286       C  0.51462193  0.36705694  0.09890619    -0.33400
C1287       C  0.53988743  0.36578334  0.12130496     0.35900
C1288       C  0.53278738  0.36267862  0.15392465    -0.06300
C1289       C  0.99978658  0.36354735  0.16286024    -0.33300
C1290       C  0.97452800  0.36354857  0.14056643     0.35800
H1291       H  0.52101074  0.36904338  0.07407896     0.16100
O1292       O  0.57142258  0.36772672  0.11089976    -0.60800
H1293       H  0.99334987  0.36286210  0.18772254     0.16100
O1294       O  0.94304084  0.36307777  0.15127792    -0.60900
H1295       H  0.93808983  0.33323413  0.15482563     0.43100
H1296       H  0.57776371  0.33849859  0.10614942     0.43100
C1297       C  0.85454145  0.21646109  0.18171182    -0.06000
C1298       C  0.88303785  0.20200044  0.16681982    -0.33400
C1299       C  0.89185034  0.21665739  0.13674319     0.35900
C1300       C  0.87204980  0.24640221  0.12150208    -0.06300
C1301       C  0.84231191  0.25824975  0.13556497    -0.33300
C1302       C  0.83346117  0.24338147  0.16536926     0.35800
H1303       H  0.89919695  0.18078098  0.17917566     0.16100
O1304       O  0.92111225  0.20469492  0.12391083    -0.60800
H1305       H  0.82648841  0.28070975  0.12400193     0.16100
O1306       O  0.80578739  0.25860783  0.17956612    -0.60900
H1307       H  0.78935888  0.23654631  0.17684507     0.43100
H1308       H  0.91632118  0.17963171  0.11114935     0.43100
C1309       C  0.88951882  0.25922567  0.37116597    -0.06000
C1310       C  0.86748602  0.28637179  0.38621341    -0.33400
C1311       C  0.87461131  0.30290502  0.41605435     0.35900
C1312       C  0.90428244  0.29290299  0.43087007    -0.06300
C1313       C  0.92720881  0.26833778  0.41483539    -0.33300
C1314       C  0.91989031  0.25102604  0.38542307     0.35800
H1315       H  0.84409702  0.29305698  0.37559731     0.16100
O1316       O  0.85200236  0.32759502  0.43102794    -0.60800
H1317       H  0.95000748  0.26017520  0.42611169     0.16100
O1318       O  0.94248197  0.22569572  0.37092636    -0.60900
H1319       H  0.94091171  0.19845590  0.38192204     0.43100
H1320       H  0.85724514  0.35646936  0.42457337     0.43100
C1321       C  0.98623242  0.63702377  0.39825385    -0.06000
C1322       C  0.97813671  0.63471260  0.36600268    -0.33400
C1323       C  0.50103217  0.63716445  0.34233795     0.35900
C1324       C  0.53420357  0.63966191  0.35046517    -0.06300
C1325       C  0.54246317  0.63787193  0.38271224    -0.33300
C1326       C  0.51852124  0.63583966  0.40640009     0.35800
H1327       H  0.95292780  0.63308870  0.35899826     0.16100
O1328       O  0.99279504  0.63444340  0.31124367    -0.60800
H1329       H  0.56770087  0.63895316  0.38978329     0.16100
O1330       O  0.52816220  0.63523361  0.43740130    -0.60900
H1331       H  0.52962404  0.60529707  0.44312570     0.43100
H1332       H  0.99252416  0.60443678  0.30571915     0.43100
C1333       C  0.99903884  0.77614170  0.98661505    -0.06000
C1334       C  0.49830719  0.80762386  0.01199873    -0.33400
C1335       C  0.52778900  0.82395831  0.02282367     0.35900
C1336       C  0.55693705  0.81200949  0.00788070    -0.06300
C1337       C  0.55644063  0.78551923  0.48021714    -0.33300
C1338       C  0.52759153  0.76816410  0.47000331     0.35800
H1339       H  0.47613861  0.81502418  0.02468577     0.16100
O1340       O  0.52814756  0.84788035  0.04965785    -0.60800
H1341       H  0.57881490  0.77498255  0.46919594     0.16100
O1342       O  0.02822981  0.74272631  0.44548421    -0.60900
H1343       H  0.01718084  0.75716777  0.42772394     0.43100
H1344       H  0.52965337  0.82776039  0.06743701     0.43100
C1345       C  0.80677672  0.69951877  0.48336184    -0.06000
C1346       C  0.78153471  0.70344348  0.46143104    -0.33400
C1347       C  0.75160048  0.72103937  0.47052053     0.35900
C1348       C  0.74693422  0.73496781  0.00305321    -0.06300
C1349       C  0.77257400  0.73339406  0.02454450    -0.33300
C1350       C  0.80121284  0.71137643  0.51500989     0.35800
H1351       H  0.78582355  0.69584543  0.43679406     0.16100
O1352       O  0.72811344  0.72731946  0.44812632    -0.60800
H1353       H  0.77010310  0.74809588  0.04749825     0.16100
O1354       O  0.82551408  0.70805325  0.53691575    -0.60900
H1355       H  0.82611233  0.67816369  0.54286799     0.43100
H1356       H  0.71473405  0.70182829  0.44867855     0.43100
C1357       C  0.90918844  0.54867477  0.49624845    -0.06000
C1358       C  0.91891877  0.53522678  0.02689254    -0.33400
C1359       C  0.91881272  0.49300258  0.03571223     0.35900
C1360       C  0.90793001  0.46254202  0.01436915    -0.06300
C1361       C  0.89647358  0.47601274  0.48453804    -0.33300
C1362       C  0.89598410  0.51824450  0.47591011     0.35800
H1363       H  0.92828077  0.55784047  0.04341689     0.16100
O1364       O  0.93033700  0.48166360  0.06492249    -0.60800
H1365       H  0.88682254  0.45312211  0.46839015     0.16100
O1366       O  0.88254526  0.52922036  0.44743748    -0.60900
H1367       H  0.90050089  0.52669171  0.43183138     0.43100
H1368       H  0.95420797  0.47894902  0.06223648     0.43100
C1369       C  0.88954155  0.76219570  0.38164718    -0.06000
C1370       C  0.87160320  0.79950464  0.37886368    -0.33400
C1371       C  0.86180564  0.81406349  0.34889371     0.35900
C1372       C  0.87049364  0.79131622  0.32161836    -0.06300
C1373       C  0.89090026  0.75609785  0.32482244    -0.33300
C1374       C  0.89987587  0.74122843  0.35434934     0.35800
H1375       H  0.86337292  0.81571371  0.39991404     0.16100
O1376       O  0.84259221  0.84906490  0.34672945    -0.60800
H1377       H  0.89884005  0.73845751  0.30432261     0.16100
O1378       O  0.91806116  0.70526286  0.35637368    -0.60900
H1379       H  0.90238133  0.68228182  0.35375800     0.43100
H1380       H  0.82013961  0.83930903  0.35055670     0.43100
C1381       C  0.90966231  0.72090733  0.07269806    -0.06000
C1382       C  0.88533226  0.70105080  0.09021720    -0.33400
C1383       C  0.87502954  0.71754355  0.11923315     0.35900
C1384       C  0.88858054  0.75485088  0.13018880    -0.06300
C1385       C  0.91396965  0.77340571  0.11323033    -0.33300
C1386       C  0.92477296  0.75635031  0.08482137     0.35800
H1387       H  0.87347032  0.67384348  0.08076808     0.16100
O1388       O  0.85019611  0.69884780  0.13543697    -0.60800
H1389       H  0.92521671  0.80155662  0.12186876     0.16100
O1390       O  0.94843169  0.77630801  0.06785384    -0.60900
H1391       H  0.96925805  0.76483599  0.07591815     0.43100
H1392       H  0.86097460  0.67901083  0.15012536     0.43100
O1393       O  0.89358851  0.72683208  0.52022201    -0.82300
C1394       C  0.95927588  0.64199280  0.92345770     0.97100
O1395       O  0.96615440  0.63850567  0.95253109    -0.71400
O1396       O  0.97566197  0.71068546  0.97785117    -0.75000
Al1397     Al  0.94946177  0.66729551  0.48867934     1.49000
C1398       C  0.97082122  0.74884776  0.98279156     0.92300
O1399       O  0.90606680  0.75759889  0.93513389    -0.81200
O1400       O  0.85309393  0.66156130  0.96492903    -0.74800
Al1401     Al  0.90087017  0.73988821  0.97777275     1.90100
O1402       O  0.88105261  0.70373018  0.91494892    -0.73900
O1403       O  0.90038161  0.60433396  0.96041739    -0.73700
O1404       O  0.93077777  0.65218285  0.91517282    -0.79400
O1405       O  0.92807562  0.61830095  0.50288588    -0.77600
O1406       O  0.91428708  0.68783552  0.96957448    -1.13700
O1407       O  0.93866530  0.69119484  0.52924704    -0.72900
C1408       C  0.91385613  0.71100506  0.53901282     0.97800
C1409       C  0.89193503  0.74025068  0.91235417     0.94200
Al1410     Al  0.89302354  0.65774832  0.94123371     1.55600
O1411       O  0.94247616  0.76290384  0.98657353    -0.77500
C1412       C  0.91130114  0.59249452  0.98678690     0.98400
C1413       C  0.84026275  0.69590615  0.97317269     0.93300
O1414       O  0.85607253  0.72930114  0.97198058    -0.82800
O1415       O  0.88965516  0.28043221  0.98480129    -0.82300
C1416       C  0.95572203  0.36165372  0.58291794     0.97100
O1417       O  0.96328015  0.36558448  0.55384320    -0.71400
O1418       O  0.97159523  0.29569280  0.52424361    -0.75000
Al1419     Al  0.94487940  0.34216798  0.51564482     1.49000
C1420       C  0.96623094  0.25757062  0.52069823     0.92300
O1421       O  0.89959026  0.25245323  0.57031663    -0.81200
O1422       O  0.85002720  0.35266342  0.53933204    -0.74800
Al1423     Al  0.89614753  0.27038791  0.52702988     1.90100
O1424       O  0.87380944  0.30710697  0.58894683    -0.73900
O1425       O  0.89952627  0.40630424  0.54805832    -0.73700
O1426       O  0.92677238  0.35306415  0.59085640    -0.79400
O1427       O  0.92253235  0.39201013  0.00391476    -0.77600
O1428       O  0.91037026  0.32158271  0.53544657    -1.13700
O1429       O  0.93169594  0.32030572  0.97491496    -0.72900
C1430       C  0.90797579  0.29877301  0.96550733     0.97800
C1431       C  0.88276728  0.26965368  0.59181071     0.94200
Al1432     Al  0.88933542  0.35231348  0.56430676     1.55600
O1433       O  0.93761030  0.24446343  0.51895370    -0.77500
C1434       C  0.91052866  0.41845042  0.52192440     0.98400
C1435       C  0.83665908  0.31922702  0.53023471     0.93300
O1436       O  0.85151873  0.28464330  0.53176047    -0.82800
O1437       O  0.64021832  0.22850342  0.53124903    -0.82300
C1438       C  0.70665379  0.14857013  0.92992818     0.97100
O1439       O  0.71405060  0.14492462  0.95891709    -0.71400
O1440       O  0.72209743  0.21575712  0.98732178    -0.75000
Al1441     Al  0.69643179  0.17106072  0.49803108     1.49000
C1442       C  0.71615915  0.25340911  0.99339736     0.92300
O1443       O  0.65003884  0.26175149  0.94549528    -0.81200
O1444       O  0.60076937  0.16084584  0.97334998    -0.74800
Al1445     Al  0.64620996  0.24115374  0.98808719     1.90100
O1446       O  0.62575884  0.20795201  0.92460462    -0.73900
O1447       O  0.64991639  0.10712972  0.96516560    -0.73700
O1448       O  0.67806255  0.15918205  0.92199267    -0.79400
O1449       O  0.67571137  0.12057181  0.51015993    -0.77600
O1450       O  0.66111992  0.19050890  0.97793487    -1.13700
O1451       O  0.68466650  0.19161905  0.53951099    -0.72900
C1452       C  0.65970719  0.21066969  0.54982179     0.97800
C1453       C  0.63394575  0.24571961  0.92326409     0.94200
Al1454     Al  0.64039365  0.16113619  0.94865932     1.55600
O1455       O  0.68736477  0.26593000  0.99736272    -0.77500
C1456       C  0.66054431  0.09441819  0.99135000     0.98400
C1457       C  0.58716110  0.19386772  0.98345842     0.93300
O1458       O  0.60175619  0.22823024  0.98253042    -0.82800
O1459       O  0.64106084  0.78806215  0.97592804    -0.82300
C1460       C  0.70459166  0.86233574  0.57842409     0.97100
O1461       O  0.71251860  0.86784385  0.54955400    -0.71400
O1462       O  0.72378962  0.80023103  0.51698412    -0.75000
Al1463     Al  0.69524703  0.84598855  0.51014336     1.49000
C1464       C  0.71911999  0.76300614  0.50934009     0.92300
O1465       O  0.65543689  0.75064055  0.56013781    -0.81200
O1466       O  0.60018619  0.84876901  0.53315370    -0.74800
Al1467     Al  0.64913937  0.77142231  0.51803874     1.90100
O1468       O  0.62596837  0.80070949  0.58167190    -0.73900
O1469       O  0.64689634  0.90484813  0.54463731    -0.73700
O1470       O  0.67598696  0.85130262  0.58566841    -0.79400
O1471       O  0.67274101  0.89495941  0.00045758    -0.77600
O1472       O  0.66152412  0.82233599  0.52888890    -1.13700
O1473       O  0.68460736  0.82626591  0.96849804    -0.72900
C1474       C  0.66023518  0.80700423  0.95771408     0.97800
C1475       C  0.63866095  0.76477626  0.58297077     0.94200
Al1476     Al  0.63902863  0.84936217  0.55879904     1.55600
O1477       O  0.69079645  0.74941035  0.50656698    -0.77500
C1478       C  0.65776142  0.91927391  0.51912754     0.98400
C1479       C  0.58864985  0.81485917  0.52288554     0.93300
O1480       O  0.60445479  0.78119404  0.52554598    -0.82800
O1481       O  0.62032891  0.28334301  0.78236042    -0.82300
C1482       C  0.55725735  0.35888128  0.67938535     0.97100
O1483       O  0.54920390  0.36401314  0.70820600    -0.71400
O1484       O  0.53981354  0.29596881  0.74004056    -0.75000
Al1485     Al  0.56657947  0.34235451  0.74742658     1.49000
C1486       C  0.54542623  0.25810142  0.74555526     0.92300
O1487       O  0.61127332  0.24810081  0.69676518    -0.81200
O1488       O  0.66193789  0.34731491  0.72598039    -0.74800
Al1489     Al  0.61493249  0.26836276  0.73952219     1.90100
O1490       O  0.63842974  0.30033944  0.67672968    -0.73900
O1491       O  0.61411439  0.40248727  0.71413922    -0.73700
O1492       O  0.58635007  0.34915722  0.67211083    -0.79400
O1493       O  0.58786678  0.39289160  0.75818167    -0.77600
O1494       O  0.60126320  0.31944839  0.72901746    -1.13700
O1495       O  0.57757791  0.32390345  0.78959430    -0.72900
C1496       C  0.60158297  0.30355561  0.80041990     0.97800
C1497       C  0.62816726  0.26359979  0.67467392     0.94200
Al1498     Al  0.62334899  0.34759469  0.69968568     1.55600
O1499       O  0.57393007  0.24474936  0.74852536    -0.77500
C1500       C  0.60314028  0.41648412  0.73975451     0.98400
C1501       C  0.67425973  0.31379096  0.73689169     0.93300
O1502       O  0.65951591  0.27977718  0.73420871    -0.82800
O1503       O  0.62851346  0.72787070  0.72806673    -0.82300
C1504       C  0.56113780  0.64814969  0.82649615     0.97100
O1505       O  0.55490566  0.64339579  0.79722270    -0.71400
O1506       O  0.54584577  0.71296330  0.76675254    -0.75000
Al1507     Al  0.57389447  0.66753106  0.75910022     1.49000
C1508       C  0.55064642  0.75104197  0.76215016     0.92300
O1509       O  0.61568068  0.75970522  0.81310833    -0.81200
O1510       O  0.66643532  0.65849671  0.78575657    -0.74800
Al1511     Al  0.62102319  0.74052421  0.77049176     1.90100
O1512       O  0.64187424  0.70679559  0.83386551    -0.73900
O1513       O  0.61769407  0.60550151  0.79425654    -0.73700
O1514       O  0.58904343  0.65982465  0.83519350    -0.79400
O1515       O  0.59702399  0.61807817  0.74799123    -0.77600
O1516       O  0.60703103  0.68954893  0.77958641    -1.13700
O1517       O  0.58660631  0.68860872  0.71768612    -0.72900
C1518       C  0.61075584  0.70977012  0.70844600     0.97800
C1519       C  0.63214251  0.74415591  0.83538684     0.94200
Al1520     Al  0.62707670  0.66010546  0.80971410     1.55600
O1521       O  0.57913434  0.76510075  0.76086367    -0.77500
C1522       C  0.60903315  0.59276613  0.76750913     0.98400
C1523       C  0.68053784  0.69119736  0.77652086     0.93300
O1524       O  0.66601754  0.72625058  0.77634198    -0.82800
O1525       O  0.86980927  0.22796041  0.73355137    -0.82300
C1526       C  0.80760799  0.14370575  0.83293639     0.97100
O1527       O  0.79891347  0.14202477  0.80420928    -0.71400
O1528       O  0.79003761  0.21411272  0.77831098    -0.75000
Al1529     Al  0.81567878  0.16816811  0.76643811     1.49000
C1530       C  0.79531506  0.25212578  0.77386080     0.92300
O1531       O  0.86198405  0.25517011  0.82061313    -0.81200
O1532       O  0.91219774  0.15758799  0.78630490    -0.74800
Al1533     Al  0.86504200  0.23896437  0.77700655     1.90100
O1534       O  0.88812376  0.20005226  0.83821965    -0.73900
O1535       O  0.86418267  0.10281233  0.79310888    -0.73700
O1536       O  0.83684138  0.15150204  0.83983263    -0.79400
O1537       O  0.83570913  0.11860200  0.75151205    -0.77600
O1538       O  0.85121740  0.18741070  0.78498917    -1.13700
O1539       O  0.82562410  0.19147967  0.72541937    -0.72900
C1540       C  0.84988790  0.21133359  0.71506909     0.97800
C1541       C  0.87849698  0.23722563  0.84190743     0.94200
Al1542     Al  0.87343645  0.15546562  0.81207374     1.55600
O1543       O  0.82374976  0.26496229  0.77017556    -0.77500
C1544       C  0.85138003  0.09220430  0.76740098     0.98400
C1545       C  0.92502850  0.19155955  0.77774689     0.93300
O1546       O  0.90981373  0.22566225  0.78048553    -0.82800
O1547       O  0.85761479  0.76957158  0.77031377    -0.82300
C1548       C  0.80159602  0.86157224  0.67907261     0.97100
O1549       O  0.79336451  0.84671696  0.70581802    -0.71400
O1550       O  0.79800047  0.78951632  0.75107470    -0.75000
Al1551     Al  0.81901787  0.84055864  0.74286344     1.49000
C1552       C  0.79874952  0.75447456  0.73794307     0.92300
O1553       O  0.87355518  0.75334370  0.68381477    -0.81200
O1554       O  0.91571236  0.83833419  0.70718739    -0.74800
Al1555     Al  0.86382925  0.76700436  0.72606538     1.90100
O1556       O  0.87539097  0.81329610  0.65966240    -0.73900
O1557       O  0.87579888  0.90009613  0.71873135    -0.73700
O1558       O  0.83130042  0.87027814  0.67304620    -0.79400
O1559       O  0.82880304  0.89798541  0.74161047    -0.77600
O1560       O  0.85210861  0.82012541  0.71990994    -1.13700
O1561       O  0.84392027  0.83456870  0.78145076    -0.72900
C1562       C  0.85615578  0.79956689  0.78965998     0.97800
C1563       C  0.87797942  0.77442625  0.65930918     0.94200
Al1564     Al  0.87257081  0.85270710  0.69212624     1.55600
O1565       O  0.82129079  0.74540570  0.71891365    -0.77500
C1566       C  0.85350445  0.91778510  0.73382678     0.98400
C1567       C  0.92564030  0.80929056  0.72523532     0.93300
O1568       O  0.90693910  0.78085082  0.73432335    -0.82800
C1569       C  0.85513392  0.96247679  0.74105210    -0.06000
C1570       C  0.83412233  0.98999093  0.72528176    -0.33400
C1571       C  0.83351483  0.03250573  0.73262329     0.35900
C1572       C  0.85379909  0.04810979  0.75668343    -0.06300
C1573       C  0.87520344  0.02026771  0.77209916    -0.33300
C1574       C  0.87592484  0.97776470  0.76442374     0.35800
H1575       H  0.81783943  0.97831742  0.70734970     0.16100
O1576       O  0.81185427  0.05797358  0.71713016    -0.60800
H1577       H  0.89101776  0.03126907  0.79063587     0.16100
O1578       O  0.89630938  0.95123392  0.78051066    -0.60900
H1579       H  0.88381870  0.94238528  0.79943297     0.43100
H1580       H  0.82345656  0.06733353  0.69782185     0.43100
C1581       C  0.71479639  0.69046428  0.76723234    -0.06000
C1582       C  0.73731506  0.70324779  0.78966879    -0.33400
C1583       C  0.76662669  0.72064482  0.78006411     0.35900
C1584       C  0.77391742  0.72448477  0.74757233    -0.06300
C1585       C  0.75331653  0.70655798  0.72523235    -0.33300
C1586       C  0.72362398  0.68958830  0.73501320     0.35800
H1587       H  0.73081841  0.70366876  0.81450297     0.16100
O1588       O  0.78702568  0.73669397  0.80248331    -0.60800
H1589       H  0.75869823  0.70930177  0.70021408     0.16100
O1590       O  0.70204459  0.67620637  0.71275856    -0.59300
H1591       H  0.70560715  0.64567179  0.71138283     0.43100
H1592       H  0.77693196  0.76351707  0.80907592     0.43100
C1593       C  0.52201130  0.77793877  0.75625918    -0.06000
C1594       C  0.51802185  0.79692020  0.72647116    -0.33400
C1595       C  0.98627815  0.80976382  0.71570053     0.35900
C1596       C  0.95957209  0.80658949  0.73646287    -0.06300
C1597       C  0.96478501  0.79222777  0.76746862    -0.33300
C1598       C  0.99516559  0.77697797  0.77680054     0.35800
H1599       H  0.53806340  0.79708188  0.70977126     0.16100
O1600       O  0.98183330  0.82209778  0.68494803    -0.60800
H1601       H  0.94455167  0.78982962  0.78383675     0.16100
O1602       O  0.99867250  0.75974883  0.80633932    -0.60900
H1603       H  0.98957872  0.73132899  0.80473034     0.43100
H1604       H  0.48833048  0.85499418  0.68657939     0.43100
C1605       C  0.70597750  0.31147249  0.75295836    -0.06000
C1606       C  0.73412572  0.32643442  0.73818510    -0.33400
C1607       C  0.76483760  0.31092507  0.74718445     0.35900
C1608       C  0.76716380  0.28044114  0.77120602    -0.06300
C1609       C  0.73953501  0.27003034  0.78846485    -0.33300
C1610       C  0.70908995  0.28478914  0.77948041     0.35800
H1611       H  0.73215072  0.34648883  0.71763378     0.16100
O1612       O  0.79164714  0.32160025  0.72976140    -0.60800
H1613       H  0.74107750  0.24681406  0.80709393     0.16100
O1614       O  0.68216578  0.26805662  0.79374802    -0.60900
H1615       H  0.68623856  0.26793370  0.81684273     0.43100
H1616       H  0.79896533  0.34833889  0.73884415     0.43100
C1617       C  0.51796503  0.22984745  0.74972322    -0.06000
C1618       C  0.99197998  0.23345543  0.72810783    -0.33400
C1619       C  0.96211052  0.21590862  0.73566283     0.35900
C1620       C  0.95799141  0.19402971  0.76432539    -0.06300
C1621       C  0.98509108  0.18641612  0.78354309    -0.33300
C1622       C  0.51486284  0.20486777  0.77705712     0.35800
H1623       H  0.99404698  0.25257664  0.70704170     0.16100
O1624       O  0.93626202  0.22307249  0.71601896    -0.60800
H1625       H  0.98216078  0.17044971  0.80596078     0.16100
O1626       O  0.53976076  0.20184054  0.79840061    -0.60900
H1627       H  0.55276722  0.17728540  0.79154015     0.43100
H1628       H  0.93075092  0.25306200  0.71841368     0.43100
C1629       C  0.61106745  0.54764276  0.76000871    -0.06000
C1630       C  0.61120487  0.51832055  0.78479953    -0.33400
C1631       C  0.60903301  0.47552837  0.77864143     0.35900
C1632       C  0.60735138  0.46121515  0.74724703    -0.06300
C1633       C  0.60902769  0.49035725  0.72242195    -0.33300
C1634       C  0.61072116  0.53315018  0.72855584     0.35800
H1635       H  0.61183317  0.52862325  0.80917014     0.16100
O1636       O  0.60919856  0.44795088  0.80346110    -0.60800
H1637       H  0.60805360  0.48001319  0.69806986     0.16100
O1638       O  0.61141885  0.56046297  0.70357288    -0.60900
H1639       H  0.63453905  0.56832349  0.70120192     0.43100
H1640       H  0.58627074  0.44643186  0.81061147     0.43100
C1641       C  0.77617880  0.86708366  0.65395665    -0.06000
C1642       C  0.78535931  0.87495617  0.62240228    -0.33400
C1643       C  0.76241700  0.87510940  0.59776151     0.35900
C1644       C  0.72925145  0.86737464  0.60418684    -0.06300
C1645       C  0.71992069  0.86140260  0.63592604    -0.33300
C1646       C  0.74275353  0.86147395  0.66051649     0.35800
H1647       H  0.81068603  0.87967422  0.61650361     0.16100
O1648       O  0.77296028  0.88218610  0.56743407    -0.60800
H1649       H  0.69472438  0.85570028  0.64184740     0.16100
O1650       O  0.73198420  0.85484267  0.69082970    -0.60900
H1651       H  0.72671496  0.88295107  0.69921195     0.43100
H1652       H  0.78090818  0.85475273  0.55969960     0.43100
C1653       C  0.65533429  0.80236137  0.92334086    -0.06000
C1654       C  0.67971743  0.78263879  0.90553897    -0.33400
C1655       C  0.67273530  0.76560255  0.87594588     0.35900
C1656       C  0.64113116  0.76900365  0.86336270    -0.06300
C1657       C  0.61768734  0.79278648  0.87958473    -0.33300
C1658       C  0.62458007  0.80919146  0.90957651     0.35800
H1659       H  0.70357361  0.77761462  0.91560486     0.16100
O1660       O  0.69657982  0.74376168  0.86022058    -0.60800
H1661       H  0.59343822  0.79626832  0.87002077     0.16100
O1662       O  0.60068014  0.83009672  0.92592200    -0.60900
H1663       H  0.60173456  0.85926417  0.91826244     0.43100
H1664       H  0.70571594  0.76378260  0.84475425     0.43100
C1665       C  0.63352161  0.74072771  0.61204065    -0.06000
C1666       C  0.60203069  0.72768443  0.61994213    -0.33400
C1667       C  0.59445131  0.71493090  0.65086931     0.35900
C1668       C  0.61855228  0.71561944  0.67442749    -0.06300
C1669       C  0.65025770  0.72766731  0.66593912    -0.33300
C1670       C  0.65784412  0.73979645  0.63507714     0.35800
H1671       H  0.58284394  0.72973703  0.60252492     0.16100
O1672       O  0.56297511  0.70505288  0.65824016    -0.60800
H1673       H  0.66895523  0.73002441  0.68369288     0.16100
O1674       O  0.68818687  0.75496070  0.62852978    -0.60900
H1675       H  0.70030947  0.73129684  0.61892736     0.43100
H1676       H  0.55288868  0.73140466  0.66584877     0.43100
C1677       C  0.65538084  0.96439906  0.51277900    -0.06000
C1678       C  0.66291007  0.99258779  0.53694343    -0.33400
C1679       C  0.66455528  0.03548678  0.53086942     0.35900
C1680       C  0.65696361  0.04972293  0.99989773    -0.06300
C1681       C  0.64781670  0.02108650  0.97641198    -0.33300
C1682       C  0.64714572  0.97824586  0.98266673     0.35800
H1683       H  0.66880002  0.98114658  0.56038000     0.16100
O1684       O  0.67346353  0.06173894  0.55480032    -0.60800
H1685       H  0.64206605  0.03172210  0.95274275     0.16100
O1686       O  0.63826317  0.95127993  0.95918149    -0.60900
H1687       H  0.65863573  0.94455966  0.94759439     0.43100
H1688       H  0.65368358  0.06547756  0.56799912     0.43100
C1689       C  0.65378422  0.21483133  0.58407357    -0.06000
C1690       C  0.62272707  0.20692187  0.59661545    -0.33400
C1691       C  0.61446750  0.21942354  0.62746745     0.35900
C1692       C  0.63749300  0.24009805  0.64603345    -0.06300
C1693       C  0.66910363  0.24550774  0.63406462    -0.33300
C1694       C  0.67734475  0.23301109  0.60340721     0.35800
H1695       H  0.60438825  0.19286926  0.58191092     0.16100
O1696       O  0.58327270  0.21430303  0.63820247    -0.60800
H1697       H  0.68698756  0.26191314  0.64791891     0.16100
O1698       O  0.70726196  0.24308522  0.59138678    -0.60900
H1699       H  0.72172121  0.21943082  0.59719627     0.43100
H1700       H  0.57139131  0.23989552  0.63161116     0.43100
C1701       C  0.60666174  0.29981898  0.83479531    -0.06000
C1702       C  0.58417666  0.27712164  0.85246466    -0.33400
C1703       C  0.59207408  0.26251874  0.88262788     0.35900
C1704       C  0.62306404  0.27011835  0.89547229    -0.06300
C1705       C  0.64425872  0.29672547  0.87924153    -0.33300
C1706       C  0.63606881  0.31179081  0.84900923     0.35800
H1707       H  0.56131259  0.26816223  0.84198821     0.16100
O1708       O  0.56998880  0.23858489  0.89863239    -0.60800
H1709       H  0.66788694  0.30358691  0.88901055     0.16100
O1710       O  0.65762155  0.33634844  0.83288673    -0.60900
H1711       H  0.64984118  0.36532479  0.83633057     0.43100
H1712       H  0.55885902  0.25799591  0.91344108     0.43100
C1713       C  0.78254369  0.13887853  0.85850153    -0.06000
C1714       C  0.74969639  0.13329398  0.85036750    -0.33400
C1715       C  0.72488652  0.13490807  0.87331608     0.35900
C1716       C  0.73243438  0.14191436  0.90536047    -0.06300
C1717       C  0.76536910  0.14510789  0.91377458    -0.33300
C1718       C  0.79017618  0.14383988  0.89083899     0.35800
H1719       H  0.74293340  0.12893308  0.82588034     0.16100
O1720       O  0.69334155  0.12926713  0.86409476    -0.60800
H1721       H  0.77199563  0.15026633  0.93821444     0.16100
O1722       O  0.82174124  0.14827407  0.90041734    -0.60900
H1723       H  0.82516632  0.17877118  0.90169099     0.43100
H1724       H  0.68580674  0.15695327  0.85648555     0.43100
C1725       C  0.99438794  0.22919376  0.51683786    -0.06000
C1726       C  0.49613291  0.20300662  0.98953151    -0.33400
C1727       C  0.52640589  0.18646938  0.97977643     0.35900
C1728       C  0.55435919  0.19489066  0.99756747    -0.06300
C1729       C  0.55186664  0.21816606  0.52706653    -0.33300
C1730       C  0.52201091  0.23498226  0.53635490     0.35800
H1731       H  0.97531113  0.19730076  0.97667758     0.16100
O1732       O  0.52892943  0.16582645  0.95148791    -0.60800
H1733       H  0.57324418  0.22642184  0.54040364     0.16100
O1734       O  0.52081564  0.26119347  0.56194847    -0.60900
H1735       H  0.51148657  0.24439392  0.57939332     0.43100
H1736       H  0.52890732  0.18791785  0.93506478     0.43100
C1737       C  0.80371515  0.31785582  0.51680777    -0.06000
C1738       C  0.80049642  0.29724740  0.48775290    -0.33400
C1739       C  0.77083117  0.28087244  0.47838226     0.35900
C1740       C  0.74374770  0.28408581  0.49850741    -0.06300
C1741       C  0.74589804  0.30824935  0.52616701    -0.33300
C1742       C  0.77586622  0.32493639  0.53551891     0.35800
H1743       H  0.82181197  0.29020503  0.47366001     0.16100
O1744       O  0.77029362  0.25531060  0.95114251    -0.60800
H1745       H  0.72521149  0.31075040  0.54200536     0.16100
O1746       O  0.77830603  0.34421376  0.56431474    -0.60900
H1747       H  0.78484546  0.32192482  0.57934511     0.43100
H1748       H  0.76752417  0.27616738  0.93400847     0.43100
C1749       C  0.98159257  0.36544876  0.60767678    -0.06000
C1750       C  0.51387617  0.36326788  0.59912744    -0.33400
C1751       C  0.53892353  0.36221404  0.62171265     0.35900
C1752       C  0.53154704  0.36282928  0.65438033    -0.06300
C1753       C  0.99921903  0.36391218  0.66288058    -0.33300
C1754       C  0.97422380  0.36412094  0.64034002     0.35800
H1755       H  0.52047290  0.36226630  0.57431251     0.16100
O1756       O  0.57053081  0.36045146  0.61140579    -0.60800
H1757       H  0.99254938  0.36220952  0.68765686     0.16100
O1758       O  0.94264138  0.36274697  0.65071652    -0.60900
H1759       H  0.93819297  0.33277614  0.65429945     0.43100
H1760       H  0.57516753  0.33044395  0.60778350     0.43100
C1761       C  0.85449195  0.21790082  0.68097790    -0.06000
C1762       C  0.88268574  0.20273471  0.66591061    -0.33400
C1763       C  0.89138916  0.21689818  0.63562319     0.35900
C1764       C  0.87198006  0.24717240  0.62048192    -0.06300
C1765       C  0.84258583  0.25988058  0.63481820    -0.33300
C1766       C  0.83375053  0.24535366  0.66473063     0.35800
H1767       H  0.89865976  0.18122398  0.67821889     0.16100
O1768       O  0.92016598  0.20378404  0.62239339    -0.60800
H1769       H  0.82702693  0.28274278  0.62336961     0.16100
O1770       O  0.80642150  0.26132508  0.67909156    -0.60900
H1771       H  0.78946171  0.24003492  0.67599404     0.43100
H1772       H  0.91504685  0.17725460  0.61161234     0.43100
C1773       C  0.88773028  0.25910003  0.87129411    -0.06000
C1774       C  0.86553158  0.28544346  0.88696917    -0.33400
C1775       C  0.87279362  0.30145534  0.91699259     0.35900
C1776       C  0.90266349  0.29144556  0.93152611    -0.06300
C1777       C  0.92565957  0.26766463  0.91490621    -0.33300
C1778       C  0.91832329  0.25120970  0.88518588     0.35800
H1779       H  0.84199766  0.29201381  0.87661935     0.16100
O1780       O  0.85017038  0.32581583  0.93227792    -0.60800
H1781       H  0.94867496  0.25967641  0.92582390     0.16100
O1782       O  0.94121857  0.22717210  0.86990488    -0.60900
H1783       H  0.94006390  0.19935185  0.88007790     0.43100
H1784       H  0.85879735  0.35452274  0.93137038     0.43100
C1785       C  0.98532956  0.63647715  0.89896167    -0.06000
C1786       C  0.97716544  0.63556096  0.86670156    -0.33400
C1787       C  0.50247009  0.63520160  0.84295756     0.35900
C1788       C  0.53542222  0.64096924  0.85098734    -0.06300
C1789       C  0.54356923  0.64245930  0.88324341    -0.33300
C1790       C  0.51966457  0.64052856  0.90693618     0.35800
H1791       H  0.95193668  0.63461802  0.85969246     0.16100
O1792       O  0.99161463  0.63710976  0.81196565    -0.60800
H1793       H  0.56863693  0.64617516  0.89030040     0.16100
O1794       O  0.52912310  0.64360667  0.93789576    -0.60900
H1795       H  0.53351510  0.61454811  0.94477895     0.43100
H1796       H  0.99177833  0.60739616  0.80556952     0.43100
C1797       C  0.99848106  0.77823294  0.48705265    -0.06000
C1798       C  0.49852382  0.80762163  0.51021974    -0.33400
C1799       C  0.52787961  0.82435416  0.52102631     0.35900
C1800       C  0.55721674  0.81168802  0.50679956    -0.06300
C1801       C  0.55584742  0.78714481  0.98062063    -0.33300
C1802       C  0.52690793  0.76994102  0.97050620     0.35800
H1803       H  0.47620863  0.81554414  0.52248338     0.16100
O1804       O  0.52789178  0.84936838  0.54728285    -0.60800
H1805       H  0.57809408  0.77746229  0.96891286     0.16100
O1806       O  0.02925757  0.73716725  0.94726348    -0.60900
H1807       H  0.02601834  0.75296244  0.92734052     0.43100
H1808       H  0.52928718  0.82999106  0.56553820     0.43100
C1809       C  0.80688354  0.69924648  0.98529741    -0.06000
C1810       C  0.78058045  0.69819763  0.96440223    -0.33400
C1811       C  0.75042502  0.71539170  0.97334876     0.35900
C1812       C  0.74717552  0.73616329  0.50153999    -0.06300
C1813       C  0.77176930  0.73015118  0.52381639    -0.33300
C1814       C  0.80217989  0.71512058  0.01601850     0.35800
H1815       H  0.78409075  0.68711426  0.94042828     0.16100
O1816       O  0.72576600  0.71699065  0.95168967    -0.60800
H1817       H  0.76864225  0.74165296  0.54772831     0.16100
O1818       O  0.82734105  0.71602369  0.03706230    -0.60900
H1819       H  0.82727697  0.68818992  0.04724528     0.43100
H1820       H  0.71178541  0.69291916  0.95683320     0.43100
C1821       C  0.90784578  0.54808235  0.99692022    -0.06000
C1822       C  0.92126452  0.53564546  0.52580869    -0.33400
C1823       C  0.92102761  0.49346955  0.53465286     0.35900
C1824       C  0.90905785  0.46323541  0.51371479    -0.06300
C1825       C  0.89627281  0.47519213  0.98478360    -0.33300
C1826       C  0.89566257  0.51744448  0.97616067     0.35800
H1827       H  0.93145391  0.55808895  0.54198862     0.16100
O1828       O  0.93342653  0.48196517  0.56348483    -0.60800
H1829       H  0.88743468  0.45217743  0.96829165     0.16100
O1830       O  0.88313030  0.52824916  0.94725850    -0.60900
H1831       H  0.90137416  0.52473694  0.93208771     0.43100
H1832       H  0.95655651  0.47483234  0.55938042     0.43100
C1833       C  0.88800993  0.76122176  0.88174270    -0.06000
C1834       C  0.87073269  0.79907067  0.87893376    -0.33400
C1835       C  0.86088644  0.81370314  0.84895749     0.35900
C1836       C  0.86910534  0.79067264  0.82166911    -0.06300
C1837       C  0.88879433  0.75479302  0.82492564    -0.33300
C1838       C  0.89748517  0.73964940  0.85443649     0.35800
H1839       H  0.86306710  0.81572108  0.89998216     0.16100
O1840       O  0.84216417  0.84913706  0.84681244    -0.60800
H1841       H  0.89642809  0.73686178  0.80446421     0.16100
O1842       O  0.91463868  0.70287082  0.85642334    -0.60900
H1843       H  0.89825924  0.68064478  0.85410943     0.43100
H1844       H  0.81954247  0.83982191  0.85033728     0.43100
C1845       C  0.90954654  0.72009788  0.57251596    -0.06000
C1846       C  0.88432345  0.70131915  0.58954714    -0.33400
C1847       C  0.87426711  0.71775285  0.61867788     0.35900
C1848       C  0.88891950  0.75402973  0.63020211    -0.06300
C1849       C  0.91516006  0.77141706  0.61380906    -0.33300
C1850       C  0.92576412  0.75431147  0.58531724     0.35800
H1851       H  0.87163434  0.67503830  0.57964896     0.16100
O1852       O  0.84858569  0.70023505  0.63438154    -0.60800
H1853       H  0.92714746  0.79879589  0.62290814     0.16100
O1854       O  0.95024469  0.77330032  0.56884633    -0.60900
H1855       H  0.97063870  0.76158515  0.57771810     0.43100
H1856       H  0.85844911  0.67922569  0.64874008     0.43100
loop_ 
_geom_bond_atom_site_label_1 
_geom_bond_atom_site_label_2 
_geom_bond_distance 
_geom_bond_site_symmetry_2 
_ccdc_geom_bond_type 
O1           C16   1.257       .  A
O1         Al473   1.869   1_554  S
C2           O12   1.266       .  A
C2            O3   1.268       .  A
C2          C393   1.498       .  S
O3         Al469   1.929       .  S
O4            C6   1.257       .  A
O4         Al469   1.884       .  S
Al5          O13   1.905   1_556  S
Al5          O15   1.922   1_556  S
Al5         O467   1.923       .  S
Al5         O468   1.882       .  S
Al5         O478   1.780       .  S
C6           O19   1.256       .  A
C6          C869   1.472       .  S
O7           C17   1.261       .  A
O7           Al9   1.902       .  S
O8           C21   1.267       .  A
O8          Al18   1.926       .  S
Al9          O22   1.896       .  S
Al9          O19   1.910       .  S
Al9         O465   1.869       .  S
Al9          O14   1.789       .  S
O10          C17   1.264       .  A
O10         Al18   1.909       .  S
O11          C20   1.261       .  A
O11         Al18   1.919       .  S
O12         Al18   1.909       .  S
O13         C484   1.260   1_554  A
O14         Al18   1.781       .  S
O14        Al469   1.780       .  S
O15          C16   1.264       .  A
C16         C453   1.453       .  S
C17         C441   1.467       .  S
C20         O477   1.259       .  A
C20         C429   1.497       .  S
C21          O22   1.260       .  A
C21         C417   1.468       .  S
O23          C38   1.258       .  A
O23        Al495   1.884       .  S
C24          O34   1.270       .  A
C24          O25   1.274       .  A
C24         C357   1.505       .  S
O25         Al27   1.946       .  S
O26          C28   1.255       .  A
O26         Al27   1.884       .  S
Al27        O499   1.909       .  S
Al27        O501   1.938   1_554  S
Al27         O36   1.777       .  S
C28          O41   1.258       .  A
C28         C333   1.477       .  S
O29          C39   1.265       .  A
O29         Al31   1.921       .  S
O30          C43   1.272       .  A
O30         Al40   1.938       .  S
Al31         O44   1.900       .  S
Al31         O41   1.922       .  S
Al31        O487   1.882   1_554  S
Al31         O36   1.787       .  S
O32          C39   1.260       .  A
O32         Al40   1.901       .  S
O33          C42   1.256       .  A
O33         Al40   1.917       .  S
O34         Al40   1.912       .  S
O35         C506   1.256       .  A
O35        Al491   1.911       .  S
O36         Al40   1.786       .  S
O37          C38   1.268       .  A
O37        Al491   1.938       .  S
C38         C384   1.475       .  S
C39         C372   1.477       .  S
C42         O499   1.256       .  A
C42         C432   1.481       .  S
C43          O44   1.264       .  A
C43         C345   1.474       .  S
O45          C60   1.258       .  A
O45        Al517   1.883   1_554  S
C46          O56   1.270       .  A
C46          O47   1.270       .  A
C46         C324   1.501       .  S
O47        Al513   1.933       .  S
O48          C50   1.257       .  A
O48        Al513   1.886       .  S
Al49         O57   1.907   1_556  S
Al49         O59   1.933   1_556  S
Al49        O511   1.930       .  S
Al49        O512   1.890       .  S
Al49        O522   1.779       .  S
C50          O63   1.257       .  A
C50         C812   1.474       .  S
O51          C61   1.266       .  A
O51         Al53   1.924       .  S
O52          C65   1.268       .  A
O52         Al62   1.934       .  S
Al53         O66   1.893       .  S
Al53         O63   1.917       .  S
Al53        O509   1.886       .  S
Al53         O58   1.787       .  S
O54          C61   1.262       .  A
O54         Al62   1.906       .  S
O55          C64   1.257       .  A
O55         Al62   1.902       .  S
O56         Al62   1.920       .  S
O57         C528   1.258   1_554  A
O58         Al62   1.785       .  S
O58        Al513   1.780       .  S
O59          C60   1.267       .  A
C60         C297   1.472       .  S
C61         C312   1.480       .  S
C64         O521   1.258       .  A
C64         C288   1.488       .  S
C65          O66   1.261       .  A
C65         C336   1.473       .  S
O67          C82   1.260       .  A
O67        Al539   1.885       .  S
C68          O78   1.269       .  A
C68          O69   1.274       .  A
C68         C252   1.501       .  S
O69         Al71   1.946       .  S
O70          C72   1.256       .  A
O70         Al71   1.896       .  S
Al71        O543   1.902   1_554  S
Al71        O545   1.944   1_554  S
Al71         O80   1.773       .  S
C72          O85   1.255       .  A
C72         C420   1.470       .  S
O73          C83   1.267       .  A
O73         Al75   1.916       .  S
O74          C87   1.269       .  A
O74         Al84   1.936       .  S
Al75         O88   1.886       .  S
Al75         O85   1.907       .  S
Al75        O531   1.887   1_554  S
Al75         O80   1.780       .  S
O76          C83   1.263       .  A
O76         Al84   1.916       .  S
O77          C86   1.256       .  A
O77         Al84   1.908       .  S
O78         Al84   1.904       .  S
O79         C550   1.256       .  A
O79        Al535   1.901       .  S
O80         Al84   1.784       .  S
O81          C82   1.272       .  A
O81        Al535   1.953       .  S
C82         C261   1.478       .  S
C83         C273   1.465       .  S
C86         O543   1.255   1_554  A
C86         C285   1.476       .  S
C87          O88   1.260       .  A
C87         C408   1.468       .  S
O89         C104   1.260       .  A
O89         Al97   1.889       .  S
C90         O100   1.272       .  A
C90          O91   1.272       .  A
C90         C360   1.504       .  S
O91         Al93   1.932       .  S
O92          C94   1.257       .  A
O92         Al93   1.892       .  S
Al93        O101   1.908       .  S
Al93        O103   1.932       .  S
Al93        O102   1.777       .  S
C94         O107   1.253       .  A
C94         C225   1.468       .  S
O95         C105   1.266       .  A
O95         Al97   1.927       .  S
O96         C109   1.272       .  A
O96        Al106   1.946       .  S
Al97        O110   1.889       .  S
Al97        O107   1.896       .  S
Al97        O102   1.783       .  S
O98         C105   1.260       .  A
O98        Al106   1.901       .  S
O99         C108   1.255       .  A
O99        Al106   1.903       .  S
O100       Al106   1.928       .  S
O101        C108   1.257       .  A
O102       Al106   1.785       .  S
O103        C104   1.266       .  A
C104        C309   1.473       .  S
C105        C300   1.473       .  S
C108        C240   1.483       .  S
C109        O110   1.260       .  A
C109        C213   1.478       .  S
O111        C126   1.255       .  A
O111       Al119   1.861       .  S
C112        O122   1.269       .  A
C112        O113   1.276       .  A
C112        C396   1.497       .  S
O113       Al115   1.954       .  S
O114        C116   1.254       .  A
O114       Al115   1.876       .  S
Al115       O123   1.900       .  S
Al115       O125   1.945       .  S
Al115       O124   1.774       .  S
C116        O129   1.261       .  A
C116        C201   1.474       .  S
O117        C127   1.262       .  A
O117       Al119   1.917       .  S
O118        C131   1.266       .  A
O118       Al128   1.908       .  S
Al119       O132   1.921       .  S
Al119       O129   1.930       .  S
Al119       O124   1.781       .  S
O120        C127   1.262       .  A
O120       Al128   1.923       .  S
O121        C130   1.257       .  A
O121       Al128   1.917       .  S
O122       Al128   1.897       .  S
O123        C130   1.255       .  A
O124       Al128   1.786       .  S
O125        C126   1.269       .  A
C126        C276   1.486       .  S
C127        C264   1.480       .  S
C130        C237   1.486       .  S
C131        O132   1.269       .  A
C131        C189   1.463       .  S
O133        C148   1.258       .  A
O133       Al141   1.879       .  S
C134        O144   1.268       .  A
C134        O135   1.269       .  A
C134        C321   1.503       .  S
O135       Al137   1.930       .  S
O136        C138   1.256       .  A
O136       Al137   1.875       .  S
Al137       O145   1.892       .  S
Al137       O147   1.932       .  S
Al137       O146   1.779       .  S
C138        O151   1.255       .  A
C138        C216   1.472       .  S
O139        C149   1.265       .  A
O139       Al141   1.917       .  S
O140        C153   1.268       .  A
O140       Al150   1.931       .  S
Al141       O154   1.892       .  S
Al141       O151   1.913       .  S
Al141       O146   1.786       .  S
O142        C149   1.264       .  A
O142       Al150   1.917       .  S
O143        C152   1.260       .  A
O143       Al150   1.918       .  S
O144       Al150   1.918       .  S
O145        C152   1.256       .  A
O146       Al150   1.784       .  S
O147        C148   1.266       .  A
C148        C369   1.467       .  S
C149        C381   1.480       .  S
C152        C180   1.490       .  S
C153        O154   1.260       .  A
C153        C228   1.470       .  S
O155        C170   1.264       .  A
O155       Al163   1.889       .  S
C156        O166   1.281       .  A
C156        O157   1.271       .  A
C156        C249   1.503       .  S
O157       Al159   1.900       .  S
O158        C160   1.257       .  A
O158       Al159   1.894       .  S
Al159       O167   1.892       .  S
Al159       O169   1.939       .  S
Al159       O168   1.787       .  S
C160        O173   1.259       .  A
C160        C192   1.467       .  S
O161        C171   1.250       .  A
O161       Al163   1.877       .  S
O162        C175   1.270       .  A
O162       Al172   1.942       .  S
Al163       O176   1.868       .  S
Al163       O173   1.917       .  S
Al163       O168   1.787       .  S
O164        C171   1.251       .  A
O164       Al172   1.869       .  S
O165        C174   1.249       .  A
O165       Al172   1.900       .  S
O166       Al172   1.962       .  S
O167        C174   1.248       .  A
O168       Al172   1.785       .  S
O169        C170   1.274       .  A
C170        C444   1.482       .  S
C171        C456   1.459       .  S
C174        C177   1.470       .  S
C175        O176   1.259       .  A
C175        C204   1.480       .  S
C177        C178   1.400       .  A
C177        C182   1.403       .  A
C178        C179   1.400   1_565  A
C178        H183   1.084       .  S
C179        C180   1.415       .  A
C179        O184   1.372       .  S
C180        C181   1.410       .  A
C181        C182   1.403   1_545  A
C181        H185   1.083       .  S
C182        O186   1.371       .  S
O184        H188   0.992       .  S
O186        H187   0.992       .  S
C189        C190   1.395       .  A
C189        C194   1.410       .  A
C190        C191   1.394       .  A
C190        H195   1.083       .  S
C191        C192   1.410       .  A
C191        O196   1.374       .  S
C192        C193   1.401       .  A
C193        C194   1.404       .  A
C193        H197   1.084       .  S
C194        O198   1.371       .  S
O196        H200   0.992       .  S
O198        H199   0.992       .  S
C201        C202   1.408       .  A
C201       C1134   1.404   1_455  A
C202       C1131   1.409   1_455  A
C202        H207   1.084       .  S
C203        C204   1.409       .  A
C203       C1130   1.409       .  A
C203        O208   1.371       .  S
C204        C205   1.406       .  A
C205        C206   1.396       .  A
C205        H209   1.084       .  S
C206       C1129   1.404       .  A
C206        O210   1.373       .  S
O208       H1140   0.991       .  S
O210        H211   0.992       .  S
H212       O1136   0.992       .  S
C213        C214   1.403       .  A
C213        C218   1.415       .  A
C214        C215   1.409       .  A
C214        H219   1.083       .  S
C215        C216   1.412       .  A
C215        O220   1.371       .  S
C216        C217   1.393       .  A
C217        C218   1.390       .  A
C217        H221   1.085       .  S
C218        O222   1.373       .  S
O220        H224   0.991       .  S
O222        H223   0.992       .  S
C225        C230   1.412       .  A
C225       C1154   1.395   1_455  A
C226        C227   1.394       .  A
C226       C1153   1.394       .  A
C226        H231   1.084       .  S
C227        C228   1.411       .  A
C227        O232   1.370       .  S
C228        C229   1.402       .  A
C229       C1158   1.405       .  A
C229        H233   1.084       .  S
C230       C1157   1.405   1_455  A
C230        O234   1.371       .  S
O232        H236   0.992       .  S
O234        H235   0.992       .  S
C237        C238   1.407       .  A
C237        C242   1.411       .  A
C238        C239   1.403       .  A
C238        H243   1.083       .  S
C239        C240   1.408       .  A
C239        O244   1.372       .  S
C240        C241   1.406       .  A
C241        C242   1.401       .  A
C241        H245   1.084       .  S
C242        O246   1.372       .  S
O244        H248   0.992       .  S
O246        H247   0.992       .  S
C249        C250   1.408       .  A
C249        C254   1.416       .  A
C250        C251   1.410       .  A
C250        H255   1.083       .  S
C251        C252   1.416       .  A
C251        O256   1.372       .  S
C252        C253   1.407       .  A
C253        C254   1.404       .  A
C253        H257   1.083       .  S
C254        O258   1.372       .  S
O256        H260   0.992       .  S
O258        H259   0.991       .  S
C261        C262   1.399       .  A
C261        C266   1.411       .  A
C262        C263   1.400       .  A
C262        H267   1.082       .  S
C263        C264   1.411       .  A
C263        O268   1.371       .  S
C264        C265   1.402       .  A
C265        C266   1.405       .  A
C265        H269   1.084       .  S
C266        O270   1.371       .  S
O268        H272   0.992       .  S
O270        H271   0.991       .  S
C273        C274   1.405       .  A
C273        C278   1.400       .  A
C274        C275   1.405       .  A
C274        H279   1.084       .  S
C275        C276   1.410       .  A
C275        O280   1.372       .  S
C276        C277   1.410       .  A
C277        C278   1.395       .  A
C277        H281   1.082       .  S
C278        O282   1.372       .  S
O280        H284   0.992       .  S
O282        H283   0.991       .  S
C285        C286   1.404       .  A
C285        C754   1.405   1_554  A
C286        C287   1.402   1_565  A
C286        H291   1.084       .  S
C287        C752   1.412   1_554  A
C287        O292   1.371       .  S
C288        C289   1.409       .  A
C288        C751   1.412       .  A
C289        C290   1.400   1_545  A
C289        H293   1.083       .  S
C290        C749   1.404       .  A
C290        O294   1.372       .  S
O292        H296   0.992       .  S
O294        H295   0.992       .  S
C297        C298   1.407       .  A
C297        C302   1.404       .  A
C298        C299   1.404       .  A
C298        H303   1.083       .  S
C299        C300   1.405       .  A
C299        O304   1.372       .  S
C300        C301   1.406       .  A
C301        C302   1.397       .  A
C301        H305   1.084       .  S
C302        O306   1.372       .  S
O304        H308   0.992       .  S
O306        H307   0.991       .  S
C309        C310   1.397       .  A
C309        C314   1.410       .  A
C310        C311   1.397       .  A
C310        H315   1.084       .  S
C311        C312   1.413       .  A
C311        O316   1.372       .  S
C312        C313   1.403       .  A
C313        C314   1.407       .  A
C313        H317   1.083       .  S
C314        O318   1.371       .  S
O316        H320   0.992       .  S
O318        H319   0.992       .  S
C321        C322   1.411       .  A
C321        C326   1.414       .  A
C322        C323   1.408       .  A
C322        H327   1.083       .  S
C323        C324   1.411       .  A
C323        O328   1.372       .  S
C324        C325   1.409       .  A
C325        C326   1.408       .  A
C325        H329   1.083       .  S
C326        O330   1.372       .  S
O328        H332   0.992       .  S
O330        H331   0.992       .  S
C333       C1726   1.409   1_554  A
C333       C1266   1.404       .  A
C334        C335   1.410   1_655  A
C334       C1725   1.409       .  A
C334       H1267   1.084       .  S
C335        C336   1.406       .  A
C335        O340   1.372       .  S
C336        C801   1.404       .  A
C337        C338   1.392       .  A
C337        C800   1.404   1_554  A
C337        H341   1.083       .  S
C338       C1261   1.405   1_455  A
C338        O342   1.373       .  S
H339       C1262   1.084       .  S
O340        H344   0.992       .  S
O342        H343   0.991       .  S
C345        C346   1.404   1_554  A
C345        C350   1.407       .  A
C346        C347   1.394       .  A
C346        H351   1.081       .  S
C347        C348   1.403       .  A
C347        O816   1.372       .  S
C348        C514   1.475       .  S
C348        C349   1.408   1_556  A
C349        C350   1.409       .  A
C349        H353   1.084       .  S
C350        O354   1.371       .  S
O352        C811   1.373       .  S
O352        H356   0.992       .  S
O354        H355   0.992       .  S
C357        C362   1.414       .  A
C357       C1286   1.411       .  A
C358        C359   1.410       .  A
C358       C1285   1.411   1_455  A
C358        H363   1.083       .  S
C359        C360   1.413       .  A
C359        O364   1.371       .  S
C360       C1289   1.410   1_455  A
C361        C362   1.407       .  A
C361       C1288   1.410       .  A
C361        H365   1.083       .  S
C362        O366   1.372       .  S
O364        H368   0.992       .  S
O366        H367   0.992       .  S
C369        C370   1.405       .  A
C369        C374   1.402       .  A
C370        C371   1.403       .  A
C370        H375   1.083       .  S
C371        C372   1.407       .  A
C371        O376   1.371       .  S
C372        C373   1.408       .  A
C373        C374   1.395       .  A
C373        H377   1.084       .  S
C374        O378   1.372       .  S
O376        H380   0.992       .  S
O378        H379   0.991       .  S
C381        C382   1.402       .  A
C381        C386   1.412       .  A
C382        C383   1.403       .  A
C382        H387   1.084       .  S
C383        C384   1.411       .  A
C383        O388   1.370       .  S
C384        C385   1.399       .  A
C385        C386   1.401       .  A
C385        H389   1.084       .  S
C386        O390   1.373       .  S
O388        H392   0.991       .  S
O390        H391   0.992       .  S
C393        C394   1.407       .  A
C393       C1326   1.415       .  A
C394       C1323   1.406       .  A
C394        H399   1.082       .  S
C395        C396   1.414       .  A
C395       C1322   1.407   1_455  A
C395       O1328   1.371   1_455  S
C396        C397   1.407       .  A
C397        C398   1.403       .  A
C397        H401   1.083       .  S
C398       C1321   1.415   1_455  A
C398        O402   1.371       .  S
O400       C1323   1.371       .  S
O400        H404   0.992       .  S
O402        H403   0.992       .  S
C405        C470   1.472       .  S
C405       C1334   1.409   1_556  A
C405       C1802   1.403       .  A
C406        C407   1.406   1_655  A
C406       C1333   1.410   1_554  A
C406        H411   1.082       .  S
C407        C408   1.404       .  A
C407        O412   1.371       .  S
C408        C873   1.405   1_554  A
C409        C410   1.389       .  A
C409        C872   1.405       .  A
C409        H413   1.082       .  S
C410       C1797   1.403   1_455  A
C410       O1342   1.373       .  S
O412        H416   0.992       .  S
O414       C1338   1.373       .  S
O414        H415   0.992       .  S
C417        C418   1.401       .  A
C417        C422   1.409       .  A
C418        C419   1.403       .  A
C418        H423   1.084       .  S
C419        C884   1.411       .  A
C419        O424   1.370       .  S
C420        C421   1.397       .  A
C420        C883   1.411   1_554  A
C421        C886   1.397       .  A
C421        H425   1.084       .  S
C422        C885   1.396       .  A
C422        O426   1.369       .  S
O424        H428   0.991       .  S
O426        H427   0.991       .  S
C429        C434   1.417       .  A
C429        C894   1.409       .  A
C430        C431   1.405       .  A
C430        C893   1.408   1_554  A
C430        H435   1.083       .  S
C431        C432   1.409       .  A
C431        O436   1.372       .  S
C432        C897   1.401   1_554  A
C433        C434   1.405       .  A
C433        C896   1.401       .  A
C433        H437   1.084       .  S
C434        O438   1.371       .  S
O436        H440   0.992       .  S
O438        H439   0.992       .  S
C441        C442   1.406       .  A
C441        C446   1.400       .  A
C442        C443   1.411       .  A
C442        H447   1.083       .  S
C443        C444   1.409       .  A
C443        O448   1.371       .  S
C444        C445   1.408       .  A
C445        C446   1.386       .  A
C445        H449   1.084       .  S
C446        O450   1.372       .  S
O448        H452   0.992       .  S
O450        H451   0.992       .  S
C453        C454   1.401       .  A
C453        C458   1.402       .  A
C454        C455   1.399       .  A
C454        H459   1.083       .  S
C455        C456   1.405       .  A
C455        O460   1.371       .  S
C456        C457   1.401       .  A
C457        C458   1.390       .  A
C457        H461   1.084       .  S
C458        O462   1.370       .  S
O460        H464   0.992       .  S
O462        H463   0.991       .  S
O465        C480   1.257       .  A
C466        O476   1.265       .  A
C466        O467   1.266       .  A
C466        C857   1.496       .  S
O468        C470   1.257       .  A
Al469       O477   1.906       .  S
Al469       O479   1.929       .  S
C470        O483   1.257       .  A
O471        C481   1.261       .  A
O471       Al473   1.900       .  S
O472        C485   1.266       .  A
O472       Al482   1.927       .  S
Al473       O486   1.894       .  S
Al473       O483   1.912       .  S
Al473       O478   1.790       .  S
O474        C481   1.264       .  A
O474       Al482   1.908       .  S
O475        C484   1.261       .  A
O475       Al482   1.919       .  S
O476       Al482   1.912       .  S
O478       Al482   1.780       .  S
O479        C480   1.265       .  A
C480        C917   1.458       .  S
C481        C905   1.466       .  S
C484        C893   1.496       .  S
C485        O486   1.259       .  A
C485        C881   1.468       .  S
O487        C502   1.258       .  A
C488        O498   1.270       .  A
C488        O489   1.274       .  A
C488        C821   1.503       .  S
O489       Al491   1.944       .  S
O490        C492   1.255       .  A
O490       Al491   1.880       .  S
Al491       O500   1.777       .  S
C492        O505   1.258       .  A
C492        C797   1.476       .  S
O493        C503   1.264       .  A
O493       Al495   1.922       .  S
O494        C507   1.273       .  A
O494       Al504   1.936       .  S
Al495       O508   1.900       .  S
Al495       O505   1.921       .  S
Al495       O500   1.787       .  S
O496        C503   1.259       .  A
O496       Al504   1.900       .  S
O497        C506   1.256       .  A
O497       Al504   1.917       .  S
O498       Al504   1.913       .  S
O500       Al504   1.788       .  S
O501        C502   1.268       .  A
C502        C848   1.472       .  S
C503        C836   1.478       .  S
C506        C896   1.482       .  S
C507        O508   1.265       .  A
C507        C809   1.474       .  S
O509        C524   1.258       .  A
C510        O520   1.269       .  A
C510        O511   1.270       .  A
C510        C788   1.496       .  S
O512        C514   1.257       .  A
Al513       O521   1.908       .  S
Al513       O523   1.936       .  S
C514        O527   1.258       .  A
O515        C525   1.266       .  A
O515       Al517   1.926       .  S
O516        C529   1.269       .  A
O516       Al526   1.933       .  S
Al517       O530   1.894       .  S
Al517       O527   1.919       .  S
Al517       O522   1.785       .  S
O518        C525   1.263       .  A
O518       Al526   1.908       .  S
O519        C528   1.257       .  A
O519       Al526   1.905       .  S
O520       Al526   1.913       .  S
O522       Al526   1.783       .  S
O523        C524   1.267       .  A
C524        C761   1.475       .  S
C525        C776   1.481       .  S
C528        C752   1.489       .  S
C529        O530   1.262       .  A
C529        C800   1.473       .  S
O531        C546   1.260       .  A
C532        O542   1.269       .  A
C532        O533   1.274       .  A
C532        C716   1.503       .  S
O533       Al535   1.949       .  S
O534        C536   1.256       .  A
O534       Al535   1.895       .  S
Al535       O544   1.773       .  S
C536        O549   1.255       .  A
C536        C884   1.470       .  S
O537        C547   1.266       .  A
O537       Al539   1.916       .  S
O538        C551   1.269       .  A
O538       Al548   1.935       .  S
Al539       O552   1.888       .  S
Al539       O549   1.907       .  S
Al539       O544   1.779       .  S
O540        C547   1.263       .  A
O540       Al548   1.918       .  S
O541        C550   1.257       .  A
O541       Al548   1.912       .  S
O542       Al548   1.905       .  S
O544       Al548   1.785       .  S
O545        C546   1.270       .  A
C546        C725   1.474       .  S
C547        C737   1.467       .  S
C550        C749   1.477       .  S
C551        O552   1.261       .  A
C551        C872   1.469       .  S
O553        C568   1.260       .  A
O553       Al561   1.893       .  S
C554        O564   1.271       .  A
C554        O555   1.272       .  A
C554        C824   1.502       .  S
O555       Al557   1.933       .  S
O556        C558   1.258       .  A
O556       Al557   1.893       .  S
Al557       O565   1.910       .  S
Al557       O567   1.932       .  S
Al557       O566   1.777       .  S
C558        O571   1.253       .  A
C558        C689   1.471       .  S
O559        C569   1.266       .  A
O559       Al561   1.931       .  S
O560        C573   1.271       .  A
O560       Al570   1.941       .  S
Al561       O574   1.889       .  S
Al561       O571   1.898       .  S
Al561       O566   1.784       .  S
O562        C569   1.260       .  A
O562       Al570   1.901       .  S
O563        C572   1.254       .  A
O563       Al570   1.900       .  S
O564       Al570   1.923       .  S
O565        C572   1.257       .  A
O566       Al570   1.787       .  S
O567        C568   1.265       .  A
C568        C773   1.476       .  S
C569        C764   1.477       .  S
C572        C704   1.483       .  S
C573        O574   1.261       .  A
C573        C677   1.476       .  S
O575        C590   1.257       .  A
O575       Al583   1.868       .  S
C576        O586   1.267       .  A
C576        O577   1.275       .  A
C576        C860   1.498       .  S
O577       Al579   1.951       .  S
O578        C580   1.254       .  A
O578       Al579   1.879       .  S
Al579       O587   1.899       .  S
Al579       O589   1.950       .  S
Al579       O588   1.773       .  S
C580        O593   1.261       .  A
C580        C665   1.474       .  S
O581        C591   1.263       .  A
O581       Al583   1.917       .  S
O582        C595   1.265       .  A
O582       Al592   1.912       .  S
Al583       O596   1.920       .  S
Al583       O593   1.932       .  S
Al583       O588   1.783       .  S
O584        C591   1.263       .  A
O584       Al592   1.916       .  S
O585        C594   1.258       .  A
O585       Al592   1.917       .  S
O586       Al592   1.898       .  S
O587        C594   1.257       .  A
O588       Al592   1.785       .  S
O589        C590   1.271       .  A
C590        C740   1.487       .  S
C591        C728   1.476       .  S
C594        C701   1.485       .  S
C595        O596   1.267       .  A
C595        C653   1.465       .  S
O597        C612   1.259       .  A
O597       Al605   1.882       .  S
C598        O608   1.267       .  A
C598        O599   1.269       .  A
C598        C785   1.498       .  S
O599       Al601   1.928       .  S
O600        C602   1.255       .  A
O600       Al601   1.874       .  S
Al601       O609   1.890       .  S
Al601       O611   1.929       .  S
Al601       O610   1.779       .  S
C602        O615   1.254       .  A
C602        C680   1.469       .  S
O603        C613   1.265       .  A
O603       Al605   1.919       .  S
O604        C617   1.267       .  A
O604       Al614   1.926       .  S
Al605       O618   1.891       .  S
Al605       O615   1.907       .  S
Al605       O610   1.786       .  S
O606        C613   1.263       .  A
O606       Al614   1.912       .  S
O607        C616   1.259       .  A
O607       Al614   1.912       .  S
O608       Al614   1.909       .  S
O609        C616   1.255       .  A
O610       Al614   1.785       .  S
O611        C612   1.266       .  A
C612        C833   1.467       .  S
C613        C845   1.481       .  S
C616        C644   1.486       .  S
C617        O618   1.260       .  A
C617        C692   1.468       .  S
O619        C634   1.267       .  A
O619       Al627   1.893       .  S
C620        O630   1.283       .  A
C620        O621   1.273       .  A
C620        C713   1.504       .  S
O621       Al623   1.897       .  S
O622        C624   1.254       .  A
O622       Al623   1.889       .  S
Al623       O631   1.889       .  S
Al623       O633   1.934       .  S
Al623       O632   1.789       .  S
C624        O637   1.258       .  A
C624        C656   1.470       .  S
O625        C635   1.251       .  A
O625       Al627   1.885       .  S
O626        C639   1.269       .  A
O626       Al636   1.942       .  S
Al627       O640   1.871       .  S
Al627       O637   1.920       .  S
Al627       O632   1.785       .  S
O628        C635   1.252       .  A
O628       Al636   1.870       .  S
O629        C638   1.247       .  A
O629       Al636   1.898       .  S
O630       Al636   1.967       .  S
O631        C638   1.246       .  A
O632       Al636   1.785       .  S
O633        C634   1.275       .  A
C634        C908   1.482       .  S
C635        C920   1.466       .  S
C638        C641   1.467       .  S
C639        O640   1.259       .  A
C639        C668   1.481       .  S
C641        C642   1.400       .  A
C641        C646   1.403       .  A
C642        C643   1.399   1_565  A
C642        H647   1.084       .  S
C643        C644   1.414       .  A
C643        O648   1.372       .  S
C644        C645   1.409       .  A
C645        C646   1.402   1_545  A
C645        H649   1.083       .  S
C646        O650   1.371       .  S
O648        H652   0.992       .  S
O650        H651   0.992       .  S
C653        C654   1.396       .  A
C653        C658   1.409       .  A
C654        C655   1.395       .  A
C654        H659   1.082       .  S
C655        C656   1.411       .  A
C655        O660   1.374       .  S
C656        C657   1.401       .  A
C657        C658   1.404       .  A
C657        H661   1.084       .  S
C658        O662   1.370       .  S
O660        H664   0.992       .  S
O662        H663   0.991       .  S
C665        C666   1.407       .  A
C665       C1598   1.404   1_455  A
C666       C1595   1.408   1_455  A
C666        H671   1.084       .  S
C667       C1594   1.409       .  A
C667        C668   1.408       .  A
C667        O672   1.371       .  S
C668        C669   1.406       .  A
C669        C670   1.398       .  A
C669        H673   1.083       .  S
C670       C1593   1.404       .  A
C670        O674   1.373       .  S
O672       H1604   0.991       .  S
O674        H675   0.992       .  S
H676       O1600   0.991       .  S
C677        C678   1.403       .  A
C677        C682   1.415       .  A
C678        C679   1.408       .  A
C678        H683   1.083       .  S
C679        C680   1.412       .  A
C679        O684   1.371       .  S
C680        C681   1.392       .  A
C681        C682   1.389       .  A
C681        H685   1.085       .  S
C682        O686   1.373       .  S
O684        H688   0.991       .  S
O686        H687   0.992       .  S
C689       C1618   1.395   1_455  A
C689        C694   1.413       .  A
C690       C1617   1.394       .  A
C690        C691   1.392       .  A
C690        H695   1.084       .  S
C691        C692   1.410       .  A
C691        O696   1.370       .  S
C692        C693   1.402       .  A
C693       C1622   1.404       .  A
C693        H697   1.084       .  S
C694       C1621   1.406   1_455  A
C694        O698   1.371       .  S
O696        H700   0.992       .  S
O698        H699   0.992       .  S
C701        C702   1.408       .  A
C701        C706   1.410       .  A
C702        C703   1.403       .  A
C702        H707   1.083       .  S
C703        C704   1.408       .  A
C703        O708   1.372       .  S
C704        C705   1.406       .  A
C705        C706   1.400       .  A
C705        H709   1.084       .  S
C706        O710   1.372       .  S
O708        H712   0.992       .  S
O710        H711   0.992       .  S
C713        C714   1.408       .  A
C713        C718   1.417       .  A
C714        C715   1.410       .  A
C714        H719   1.083       .  S
C715        C716   1.416       .  A
C715        O720   1.371       .  S
C716        C717   1.407       .  A
C717        C718   1.404       .  A
C717        H721   1.083       .  S
C718        O722   1.372       .  S
O720        H724   0.992       .  S
O722        H723   0.992       .  S
C725        C726   1.397       .  A
C725        C730   1.411       .  A
C726        C727   1.397       .  A
C726        H731   1.082       .  S
C727        C728   1.410       .  A
C727        O732   1.371       .  S
C728        C729   1.402       .  A
C729        C730   1.406       .  A
C729        H733   1.084       .  S
C730        O734   1.371       .  S
O732        H736   0.992       .  S
O734        H735   0.991       .  S
C737        C738   1.405       .  A
C737        C742   1.401       .  A
C738        C739   1.405       .  A
C738        H743   1.084       .  S
C739        C740   1.410       .  A
C739        O744   1.372       .  S
C740        C741   1.410       .  A
C741        C742   1.397       .  A
C741        H745   1.081       .  S
C742        O746   1.373       .  S
O744        H748   0.992       .  S
O746        H747   0.991       .  S
C749        C750   1.405       .  A
C750        C751   1.403   1_565  A
C750        H755   1.084       .  S
C751        O756   1.371       .  S
C752        C753   1.410       .  A
C753        C754   1.401   1_545  A
C753        H757   1.083       .  S
C754        O758   1.372       .  S
O756        H760   0.992       .  S
O758        H759   0.992       .  S
C761        C762   1.407       .  A
C761        C766   1.404       .  A
C762        C763   1.405       .  A
C762        H767   1.083       .  S
C763        C764   1.406       .  A
C763        O768   1.372       .  S
C764        C765   1.407       .  A
C765        C766   1.399       .  A
C765        H769   1.084       .  S
C766        O770   1.372       .  S
O768        H772   0.992       .  S
O770        H771   0.991       .  S
C773        C774   1.398       .  A
C773        C778   1.411       .  A
C774        C775   1.398       .  A
C774        H779   1.084       .  S
C775        C776   1.413       .  A
C775        O780   1.372       .  S
C776        C777   1.403       .  A
C777        C778   1.408       .  A
C777        H781   1.083       .  S
C778        O782   1.371       .  S
O780        H784   0.992       .  S
O782        H783   0.992       .  S
C785        C786   1.409       .  A
C785        C790   1.414       .  A
C786        C787   1.405       .  A
C786        H791   1.083       .  S
C787        C788   1.411       .  A
C787        O792   1.371       .  S
C788        C789   1.409       .  A
C789        C790   1.406       .  A
C789        H793   1.083       .  S
C790        O794   1.372       .  S
O792        H796   0.992       .  S
O794        H795   0.992       .  S
C797       C1262   1.409       .  A
C797       C1730   1.405       .  A
C798       C1261   1.409   1_556  A
C798        C799   1.409   1_655  A
C798       H1731   1.084       .  S
C799        C800   1.406       .  A
C799        O804   1.371       .  S
C801        C802   1.393       .  A
C801        H805   1.083       .  S
C802       C1725   1.404   1_455  A
C802        O806   1.372       .  S
H803       C1726   1.084       .  S
O804        H808   0.992       .  S
O806        H807   0.991       .  S
C809        C810   1.404       .  A
C809        C814   1.407       .  A
C810        C811   1.393       .  A
C810        H815   1.080       .  S
C811        C812   1.402       .  A
C812        C813   1.409       .  A
C813        C814   1.409       .  A
C813        H817   1.084       .  S
C814        O818   1.371       .  S
O816        H820   0.992       .  S
O818        H819   0.992       .  S
C821       C1750   1.410       .  A
C821        C826   1.414       .  A
C822       C1749   1.411   1_455  A
C822        C823   1.410       .  A
C822        H827   1.083       .  S
C823        C824   1.413       .  A
C823        O828   1.371       .  S
C824       C1753   1.409   1_455  A
C825       C1752   1.410       .  A
C825        C826   1.407       .  A
C825        H829   1.083       .  S
C826        O830   1.372       .  S
O828        H832   0.992       .  S
O830        H831   0.992       .  S
C833        C834   1.405       .  A
C833        C838   1.402       .  A
C834        C835   1.404       .  A
C834        H839   1.083       .  S
C835        C836   1.407       .  A
C835        O840   1.371       .  S
C836        C837   1.408       .  A
C837        C838   1.395       .  A
C837        H841   1.084       .  S
C838        O842   1.372       .  S
O840        H844   0.992       .  S
O842        H843   0.991       .  S
C845        C846   1.404       .  A
C845        C850   1.413       .  A
C846        C847   1.405       .  A
C846        H851   1.084       .  S
C847        C848   1.411       .  A
C847        O852   1.371       .  S
C848        C849   1.397       .  A
C849        C850   1.398       .  A
C849        H853   1.084       .  S
C850        O854   1.372       .  S
O852        H856   0.991       .  S
O854        H855   0.992       .  S
C857        C858   1.407       .  A
C857       C1790   1.415       .  A
C858       C1787   1.406       .  A
C858        H863   1.083       .  S
C859       C1786   1.405   1_455  A
C859        C860   1.413       .  A
C859       O1792   1.371   1_455  S
C860        C861   1.408       .  A
C861        C862   1.404       .  A
C861        H865   1.083       .  S
C862       C1785   1.415   1_455  A
C862        O866   1.371       .  S
O864       C1787   1.371       .  S
O864        H868   0.992       .  S
O866        H867   0.992       .  S
C869       C1798   1.409       .  A
C869       C1338   1.403       .  A
C870       C1797   1.409       .  A
C870        C871   1.406   1_655  A
C870        H875   1.081       .  S
C871        C872   1.404       .  A
C871        O876   1.372       .  S
C873        C874   1.388       .  A
C873        H877   1.082       .  S
C874       C1333   1.403   1_455  A
C874       O1806   1.372       .  S
O876        H880   0.992       .  S
O878       C1802   1.373       .  S
O878        H879   0.992       .  S
C881        C882   1.401       .  A
C881        C886   1.409   1_556  A
C882        C883   1.403       .  A
C882        H887   1.084       .  S
C883        O888   1.370       .  S
C884        C885   1.397       .  A
C885        H889   1.084       .  S
C886        O890   1.370       .  S
O888        H892   0.991       .  S
O890        H891   0.991       .  S
C893        C898   1.417       .  A
C894        C895   1.405       .  A
C894        H899   1.083       .  S
C895        C896   1.409       .  A
C895        O900   1.372       .  S
C897        C898   1.404       .  A
C897        H901   1.084       .  S
C898        O902   1.371       .  S
O900        H904   0.992       .  S
O902        H903   0.992       .  S
C905        C906   1.407       .  A
C905        C910   1.400       .  A
C906        C907   1.410       .  A
C906        H911   1.083       .  S
C907        C908   1.410       .  A
C907        O912   1.371       .  S
C908        C909   1.408       .  A
C909        C910   1.386       .  A
C909        H913   1.084       .  S
C910        O914   1.373       .  S
O912        H916   0.992       .  S
O914        H915   0.992       .  S
C917        C918   1.402       .  A
C917        C922   1.402       .  A
C918        C919   1.402       .  A
C918        H923   1.083       .  S
C919        C920   1.407       .  A
C919        O924   1.371       .  S
C920        C921   1.402       .  A
C921        C922   1.392       .  A
C921        H925   1.084       .  S
C922        O926   1.370       .  S
O924        H928   0.992       .  S
O926        H927   0.992       .  S
O929        C944   1.256       .  A
O929      Al1401   1.866   1_554  S
C930        O940   1.265       .  A
C930        O931   1.266       .  A
C930       C1321   1.498       .  S
O931      Al1397   1.925       .  S
O932        C934   1.257       .  A
O932      Al1397   1.885       .  S
Al933      O1395   1.928       .  S
Al933      O1396   1.882       .  S
Al933       O941   1.907   1_556  S
Al933       O943   1.925   1_556  S
Al933      O1406   1.780       .  S
C934        O947   1.256       .  A
C934       C1797   1.472       .  S
O935        C945   1.262       .  A
O935       Al937   1.900       .  S
O936        C949   1.266       .  A
O936       Al946   1.928       .  S
Al937      O1393   1.871       .  S
Al937       O950   1.894       .  S
Al937       O947   1.911       .  S
Al937       O942   1.789       .  S
O938        C945   1.264       .  A
O938       Al946   1.908       .  S
O939        C948   1.261       .  A
O939       Al946   1.915       .  S
O940       Al946   1.912       .  S
O941       C1412   1.259   1_554  A
O942      Al1397   1.779       .  S
O942       Al946   1.780       .  S
O943        C944   1.264       .  A
C944       C1381   1.454       .  S
C945       C1369   1.465       .  S
C948       O1405   1.260       .  A
C948       C1357   1.495       .  S
C949        O950   1.259       .  A
C949       C1345   1.468       .  S
O951        C966   1.258       .  A
O951      Al1423   1.881       .  S
C952        O962   1.270       .  A
C952        O953   1.274       .  A
C952       C1285   1.504       .  S
O953       Al955   1.945       .  S
O954        C956   1.254       .  A
O954       Al955   1.879       .  S
Al955      O1427   1.910       .  S
Al955      O1429   1.938   1_554  S
Al955       O964   1.778       .  S
C956        O969   1.257       .  A
C956       C1261   1.475       .  S
O957        C967   1.264       .  A
O957       Al959   1.921       .  S
O958        C971   1.273       .  A
O958       Al968   1.940       .  S
Al959      O1415   1.884   1_554  S
Al959       O972   1.900       .  S
Al959       O969   1.920       .  S
Al959       O964   1.787       .  S
O960        C967   1.259       .  A
O960       Al968   1.899       .  S
O961        C970   1.255       .  A
O961       Al968   1.915       .  S
O962       Al968   1.915       .  S
O963       C1434   1.256       .  A
O963      Al1419   1.908       .  S
O964       Al968   1.787       .  S
O965        C966   1.267       .  A
O965      Al1419   1.933       .  S
C966       C1312   1.470       .  S
C967       C1300   1.476       .  S
C970       O1427   1.256       .  A
C970       C1360   1.482       .  S
C971        O972   1.264       .  A
C971       C1273   1.476       .  S
O973        C988   1.258       .  A
O973      Al1445   1.883   1_554  S
C974        O984   1.270       .  A
C974        O975   1.270       .  A
C974       C1252   1.499       .  S
O975      Al1441   1.932       .  S
O976        C978   1.257       .  A
O976      Al1441   1.887       .  S
Al977      O1439   1.931       .  S
Al977      O1440   1.889       .  S
Al977       O985   1.905   1_556  S
Al977       O987   1.934   1_556  S
Al977      O1450   1.779       .  S
C978        O991   1.258       .  A
C978       C1740   1.475       .  S
O979        C989   1.266       .  A
O979       Al981   1.927       .  S
O980        C993   1.269       .  A
O980       Al990   1.935       .  S
Al981      O1437   1.886       .  S
Al981       O994   1.894       .  S
Al981       O991   1.919       .  S
Al981       O986   1.787       .  S
O982        C989   1.262       .  A
O982       Al990   1.905       .  S
O983        C992   1.257       .  A
O983       Al990   1.901       .  S
O984       Al990   1.918       .  S
O985       C1456   1.259   1_554  A
O986      Al1441   1.780       .  S
O986       Al990   1.784       .  S
O987        C988   1.267       .  A
C988       C1225   1.473       .  S
C989       C1240   1.481       .  S
C992       O1449   1.258       .  A
C992       C1216   1.488       .  S
C993        O994   1.262       .  A
C993       C1264   1.474       .  S
O995       C1010   1.260       .  A
O995      Al1467   1.886       .  S
C996       O1006   1.268       .  A
C996        O997   1.273       .  A
C996       C1180   1.503       .  S
O997       Al999   1.949       .  S
O998       C1000   1.256       .  A
O998       Al999   1.891       .  S
Al999      O1471   1.899       .  S
Al999      O1473   1.948   1_554  S
Al999      O1008   1.773       .  S
C1000      O1013   1.255       .  A
C1000      C1348   1.469       .  S
O1001      C1011   1.266       .  A
O1001     Al1003   1.916       .  S
O1002      C1015   1.268       .  A
O1002     Al1012   1.933       .  S
Al1003     O1459   1.888   1_554  S
Al1003     O1016   1.888       .  S
Al1003     O1013   1.908       .  S
Al1003     O1008   1.780       .  S
O1004      C1011   1.263       .  A
O1004     Al1012   1.918       .  S
O1005      C1014   1.256       .  A
O1005     Al1012   1.909       .  S
O1006     Al1012   1.904       .  S
O1007      C1478   1.255       .  A
O1007     Al1463   1.899       .  S
O1008     Al1012   1.785       .  S
O1009      C1010   1.271       .  A
O1009     Al1463   1.950       .  S
C1010      C1189   1.478       .  S
C1011      C1201   1.467       .  S
C1014      O1471   1.256       .  A
C1014      C1213   1.475       .  S
C1015      O1016   1.260       .  A
C1015      C1336   1.468       .  S
O1017      C1032   1.260       .  A
O1017     Al1025   1.892       .  S
C1018      O1028   1.272       .  A
C1018      O1019   1.272       .  A
C1018      C1288   1.503       .  S
O1019     Al1021   1.932       .  S
O1020      C1022   1.257       .  A
O1020     Al1021   1.892       .  S
Al1021     O1029   1.908       .  S
Al1021     O1031   1.929       .  S
Al1021     O1030   1.777       .  S
C1022      O1035   1.252       .  A
C1022      C1153   1.467       .  S
O1023      C1033   1.265       .  A
O1023     Al1025   1.927       .  S
O1024      C1037   1.272       .  A
O1024     Al1034   1.944       .  S
Al1025     O1038   1.889       .  S
Al1025     O1035   1.893       .  S
Al1025     O1030   1.784       .  S
O1026      C1033   1.259       .  A
O1026     Al1034   1.902       .  S
O1027      C1036   1.254       .  A
O1027     Al1034   1.901       .  S
O1028     Al1034   1.927       .  S
O1029      C1036   1.257       .  A
O1030     Al1034   1.787       .  S
O1031      C1032   1.265       .  A
C1032      C1237   1.475       .  S
C1033      C1228   1.475       .  S
C1036      C1168   1.483       .  S
C1037      O1038   1.261       .  A
C1037      C1141   1.477       .  S
O1039      C1054   1.257       .  A
O1039     Al1047   1.866       .  S
C1040      O1050   1.268       .  A
C1040      O1041   1.275       .  A
C1040      C1324   1.497       .  S
O1041     Al1043   1.953       .  S
O1042      C1044   1.254       .  A
O1042     Al1043   1.877       .  S
Al1043     O1051   1.899       .  S
Al1043     O1053   1.950       .  S
Al1043     O1052   1.773       .  S
C1044      O1057   1.261       .  A
C1044      C1129   1.473       .  S
O1045      C1055   1.262       .  A
O1045     Al1047   1.917       .  S
O1046      C1059   1.265       .  A
O1046     Al1056   1.909       .  S
Al1047     O1060   1.919       .  S
Al1047     O1057   1.930       .  S
Al1047     O1052   1.782       .  S
O1048      C1055   1.263       .  A
O1048     Al1056   1.920       .  S
O1049      C1058   1.258       .  A
O1049     Al1056   1.916       .  S
O1050     Al1056   1.896       .  S
O1051      C1058   1.256       .  A
O1052     Al1056   1.785       .  S
O1053      C1054   1.271       .  A
C1054      C1204   1.488       .  S
C1055      C1192   1.477       .  S
C1058      C1165   1.485       .  S
C1059      O1060   1.268       .  A
C1059      C1117   1.463       .  S
O1061      C1076   1.258       .  A
O1061     Al1069   1.878       .  S
C1062      O1072   1.268       .  A
C1062      O1063   1.269       .  A
C1062      C1249   1.501       .  S
O1063     Al1065   1.929       .  S
O1064      C1066   1.256       .  A
O1064     Al1065   1.875       .  S
Al1065     O1073   1.889       .  S
Al1065     O1075   1.930       .  S
Al1065     O1074   1.780       .  S
C1066      O1079   1.254       .  A
C1066      C1144   1.471       .  S
O1067      C1077   1.265       .  A
O1067     Al1069   1.915       .  S
O1068      C1081   1.268       .  A
O1068     Al1078   1.930       .  S
Al1069     O1082   1.891       .  S
Al1069     O1079   1.908       .  S
Al1069     O1074   1.786       .  S
O1070      C1077   1.263       .  A
O1070     Al1078   1.913       .  S
O1071      C1080   1.259       .  A
O1071     Al1078   1.915       .  S
O1072     Al1078   1.916       .  S
O1073      C1080   1.255       .  A
O1074     Al1078   1.786       .  S
O1075      C1076   1.266       .  A
C1076      C1297   1.466       .  S
C1077      C1309   1.478       .  S
C1080      C1108   1.488       .  S
C1081      O1082   1.260       .  A
C1081      C1156   1.470       .  S
O1083      C1098   1.267       .  A
O1083     Al1091   1.892       .  S
C1084      O1094   1.284       .  A
C1084      O1085   1.274       .  A
C1084      C1177   1.504       .  S
O1085     Al1087   1.900       .  S
O1086      C1088   1.254       .  A
O1086     Al1087   1.890       .  S
Al1087     O1095   1.890       .  S
Al1087     O1097   1.935       .  S
Al1087     O1096   1.788       .  S
C1088      O1101   1.257       .  A
C1088      C1120   1.468       .  S
O1089      C1099   1.251       .  A
O1089     Al1091   1.881       .  S
O1090      C1103   1.269       .  A
O1090     Al1100   1.941       .  S
Al1091     O1104   1.869       .  S
Al1091     O1101   1.917       .  S
Al1091     O1096   1.785       .  S
O1092      C1099   1.251       .  A
O1092     Al1100   1.867       .  S
O1093      C1102   1.247       .  A
O1093     Al1100   1.896       .  S
O1094     Al1100   1.967       .  S
O1095      C1102   1.246       .  A
O1096     Al1100   1.784       .  S
O1097      C1098   1.276       .  A
C1098      C1372   1.481       .  S
C1099      C1384   1.463       .  S
C1102      C1105   1.467       .  S
C1103      O1104   1.258       .  A
C1103      C1132   1.480       .  S
C1105      C1106   1.400       .  A
C1105      C1110   1.402       .  A
C1106      C1107   1.399   1_565  A
C1106      H1111   1.084       .  S
C1107      C1108   1.415       .  A
C1107      O1112   1.372       .  S
C1108      C1109   1.409       .  A
C1109      C1110   1.402   1_545  A
C1109      H1113   1.083       .  S
C1110      O1114   1.371       .  S
O1112      H1116   0.992       .  S
O1114      H1115   0.992       .  S
C1117      C1118   1.395       .  A
C1117      C1122   1.409       .  A
C1118      C1119   1.394       .  A
C1118      H1123   1.083       .  S
C1119      C1120   1.411       .  A
C1119      O1124   1.374       .  S
C1120      C1121   1.401       .  A
C1121      C1122   1.403       .  A
C1121      H1125   1.084       .  S
C1122      O1126   1.370       .  S
O1124      H1128   0.992       .  S
O1126      H1127   0.991       .  S
C1129      C1130   1.407       .  A
C1130      H1135   1.084       .  S
C1131      C1132   1.408       .  A
C1131      O1136   1.371       .  S
C1132      C1133   1.406       .  A
C1133      C1134   1.396       .  A
C1133      H1137   1.083       .  S
C1134      O1138   1.373       .  S
O1138      H1139   0.992       .  S
C1141      C1142   1.403       .  A
C1141      C1146   1.415       .  A
C1142      C1143   1.408       .  A
C1142      H1147   1.083       .  S
C1143      C1144   1.413       .  A
C1143      O1148   1.370       .  S
C1144      C1145   1.392       .  A
C1145      C1146   1.390       .  A
C1145      H1149   1.085       .  S
C1146      O1150   1.373       .  S
O1148      H1152   0.991       .  S
O1150      H1151   0.992       .  S
C1153      C1158   1.411       .  A
C1154      C1155   1.394       .  A
C1154      H1159   1.084       .  S
C1155      C1156   1.410       .  A
C1155      O1160   1.370       .  S
C1156      C1157   1.402       .  A
C1157      H1161   1.084       .  S
C1158      O1162   1.371       .  S
O1160      H1164   0.992       .  S
O1162      H1163   0.992       .  S
C1165      C1166   1.407       .  A
C1165      C1170   1.410       .  A
C1166      C1167   1.402       .  A
C1166      H1171   1.083       .  S
C1167      C1168   1.408       .  A
C1167      O1172   1.372       .  S
C1168      C1169   1.406       .  A
C1169      C1170   1.401       .  A
C1169      H1173   1.084       .  S
C1170      O1174   1.372       .  S
O1172      H1176   0.992       .  S
O1174      H1175   0.992       .  S
C1177      C1178   1.409       .  A
C1177      C1182   1.416       .  A
C1178      C1179   1.410       .  A
C1178      H1183   1.083       .  S
C1179      C1180   1.416       .  A
C1179      O1184   1.371       .  S
C1180      C1181   1.407       .  A
C1181      C1182   1.404       .  A
C1181      H1185   1.083       .  S
C1182      O1186   1.371       .  S
O1184      H1188   0.992       .  S
O1186      H1187   0.992       .  S
C1189      C1190   1.398       .  A
C1189      C1194   1.412       .  A
C1190      C1191   1.398       .  A
C1190      H1195   1.081       .  S
C1191      C1192   1.410       .  A
C1191      O1196   1.371       .  S
C1192      C1193   1.402       .  A
C1193      C1194   1.406       .  A
C1193      H1197   1.084       .  S
C1194      O1198   1.370       .  S
O1196      H1200   0.992       .  S
O1198      H1199   0.991       .  S
C1201      C1202   1.404       .  A
C1201      C1206   1.401       .  A
C1202      C1203   1.405       .  A
C1202      H1207   1.084       .  S
C1203      C1204   1.411       .  A
C1203      O1208   1.371       .  S
C1204      C1205   1.411       .  A
C1205      C1206   1.396       .  A
C1205      H1209   1.082       .  S
C1206      O1210   1.373       .  S
O1208      H1212   0.992       .  S
O1210      H1211   0.991       .  S
C1213      C1214   1.403       .  A
C1213      C1682   1.404   1_554  A
C1214      C1215   1.402   1_565  A
C1214      H1219   1.084       .  S
C1215      C1680   1.412   1_554  A
C1215      O1220   1.371       .  S
C1216      C1679   1.412       .  A
C1216      C1217   1.410       .  A
C1217      C1218   1.400   1_545  A
C1217      H1221   1.083       .  S
C1218      C1677   1.404       .  A
C1218      O1222   1.372       .  S
O1220      H1224   0.992       .  S
O1222      H1223   0.992       .  S
C1225      C1226   1.407       .  A
C1225      C1230   1.404       .  A
C1226      C1227   1.404       .  A
C1226      H1231   1.083       .  S
C1227      C1228   1.405       .  A
C1227      O1232   1.372       .  S
C1228      C1229   1.407       .  A
C1229      C1230   1.398       .  A
C1229      H1233   1.084       .  S
C1230      O1234   1.372       .  S
O1232      H1236   0.992       .  S
O1234      H1235   0.991       .  S
C1237      C1238   1.397       .  A
C1237      C1242   1.410       .  A
C1238      C1239   1.398       .  A
C1238      H1243   1.084       .  S
C1239      C1240   1.413       .  A
C1239      O1244   1.372       .  S
C1240      C1241   1.403       .  A
C1241      C1242   1.408       .  A
C1241      H1245   1.083       .  S
C1242      O1246   1.371       .  S
O1244      H1248   0.992       .  S
O1246      H1247   0.992       .  S
C1249      C1250   1.410       .  A
C1249      C1254   1.414       .  A
C1250      C1251   1.407       .  A
C1250      H1255   1.083       .  S
C1251      C1252   1.411       .  A
C1251      O1256   1.371       .  S
C1252      C1253   1.409       .  A
C1253      C1254   1.407       .  A
C1253      H1257   1.083       .  S
C1254      O1258   1.372       .  S
O1256      H1260   0.992       .  S
O1258      H1259   0.992       .  S
C1262      C1263   1.409       .  A
C1263      C1264   1.406       .  A
C1263      O1268   1.371       .  S
C1264      C1729   1.404       .  A
C1265      C1728   1.404   1_554  A
C1265      C1266   1.394       .  A
C1265      H1269   1.083       .  S
C1266      O1270   1.372       .  S
O1268      H1272   0.992       .  S
O1270      H1271   0.991       .  S
C1273      C1274   1.404   1_554  A
C1273      C1278   1.407       .  A
C1274      C1275   1.394       .  A
C1274      H1279   1.081       .  S
C1275      C1276   1.403       .  A
C1275      O1744   1.372       .  S
C1276      C1442   1.477       .  S
C1276      C1277   1.409   1_556  A
C1277      C1278   1.410       .  A
C1277      H1281   1.084       .  S
C1278      O1282   1.371       .  S
O1280      C1739   1.372       .  S
O1280      H1284   0.992       .  S
O1282      H1283   0.992       .  S
C1285      C1290   1.414       .  A
C1286      C1287   1.410       .  A
C1286      H1291   1.083       .  S
C1287      C1288   1.412       .  A
C1287      O1292   1.371       .  S
C1289      C1290   1.407       .  A
C1289      H1293   1.083       .  S
C1290      O1294   1.372       .  S
O1292      H1296   0.992       .  S
O1294      H1295   0.992       .  S
C1297      C1298   1.404       .  A
C1297      C1302   1.402       .  A
C1298      C1299   1.403       .  A
C1298      H1303   1.083       .  S
C1299      C1300   1.406       .  A
C1299      O1304   1.371       .  S
C1300      C1301   1.408       .  A
C1301      C1302   1.395       .  A
C1301      H1305   1.084       .  S
C1302      O1306   1.372       .  S
O1304      H1308   0.992       .  S
O1306      H1307   0.991       .  S
C1309      C1310   1.403       .  A
C1309      C1314   1.413       .  A
C1310      C1311   1.403       .  A
C1310      H1315   1.084       .  S
C1311      C1312   1.409       .  A
C1311      O1316   1.370       .  S
C1312      C1313   1.398       .  A
C1313      C1314   1.399       .  A
C1313      H1317   1.084       .  S
C1314      O1318   1.373       .  S
O1316      H1320   0.991       .  S
O1318      H1319   0.992       .  S
C1321      C1322   1.408       .  A
C1322      H1327   1.082       .  S
C1323      C1324   1.413       .  A
C1324      C1325   1.408       .  A
C1325      C1326   1.404       .  A
C1325      H1329   1.083       .  S
C1326      O1330   1.371       .  S
O1328      H1332   0.992       .  S
O1330      H1331   0.992       .  S
C1333      C1398   1.472       .  S
C1334      C1335   1.406       .  A
C1334      H1339   1.081       .  S
C1335      C1336   1.404       .  A
C1335      O1340   1.372       .  S
C1336      C1801   1.405   1_554  A
C1337      C1800   1.405       .  A
C1337      C1338   1.388       .  A
C1337      H1341   1.082       .  S
O1340      H1344   0.992       .  S
O1342      H1343   0.992       .  S
C1345      C1346   1.400       .  A
C1345      C1350   1.409       .  A
C1346      C1347   1.403       .  A
C1346      H1351   1.084       .  S
C1347      C1812   1.410       .  A
C1347      O1352   1.370       .  S
C1348      C1811   1.412   1_554  A
C1348      C1349   1.396       .  A
C1349      C1814   1.394       .  A
C1349      H1353   1.084       .  S
C1350      C1813   1.398       .  A
C1350      O1354   1.370       .  S
O1352      H1356   0.991       .  S
O1354      H1355   0.992       .  S
C1357      C1822   1.409       .  A
C1357      C1362   1.417       .  A
C1358      C1821   1.408   1_554  A
C1358      C1359   1.405       .  A
C1358      H1363   1.083       .  S
C1359      C1360   1.410       .  A
C1359      O1364   1.372       .  S
C1360      C1825   1.400   1_554  A
C1361      C1824   1.399       .  A
C1361      C1362   1.403       .  A
C1361      H1365   1.084       .  S
C1362      O1366   1.371       .  S
O1364      H1368   0.992       .  S
O1366      H1367   0.992       .  S
C1369      C1370   1.406       .  A
C1369      C1374   1.400       .  A
C1370      C1371   1.409       .  A
C1370      H1375   1.083       .  S
C1371      C1372   1.409       .  A
C1371      O1376   1.371       .  S
C1372      C1373   1.408       .  A
C1373      C1374   1.386       .  A
C1373      H1377   1.084       .  S
C1374      O1378   1.372       .  S
O1376      H1380   0.992       .  S
O1378      H1379   0.992       .  S
C1381      C1382   1.401       .  A
C1381      C1386   1.401       .  A
C1382      C1383   1.400       .  A
C1382      H1387   1.083       .  S
C1383      C1384   1.406       .  A
C1383      O1388   1.371       .  S
C1384      C1385   1.402       .  A
C1385      C1386   1.391       .  A
C1385      H1389   1.084       .  S
C1386      O1390   1.371       .  S
O1388      H1392   0.992       .  S
O1390      H1391   0.991       .  S
O1393      C1408   1.258       .  A
C1394      O1404   1.266       .  A
C1394      O1395   1.267       .  A
C1394      C1785   1.497       .  S
O1396      C1398   1.257       .  A
Al1397     O1405   1.905       .  S
Al1397     O1407   1.929       .  S
C1398      O1411   1.257       .  A
O1399      C1409   1.261       .  A
O1399     Al1401   1.901       .  S
O1400      C1413   1.267       .  A
O1400     Al1410   1.924       .  S
Al1401     O1414   1.896       .  S
Al1401     O1411   1.911       .  S
Al1401     O1406   1.789       .  S
O1402      C1409   1.264       .  A
O1402     Al1410   1.908       .  S
O1403      C1412   1.261       .  A
O1403     Al1410   1.917       .  S
O1404     Al1410   1.909       .  S
O1406     Al1410   1.779       .  S
O1407      C1408   1.266       .  A
C1408      C1845   1.457       .  S
C1409      C1833   1.467       .  S
C1412      C1821   1.496       .  S
C1413      O1414   1.261       .  A
C1413      C1809   1.468       .  S
O1415      C1430   1.258       .  A
C1416      O1426   1.270       .  A
C1416      O1417   1.273       .  A
C1416      C1749   1.503       .  S
O1417     Al1419   1.943       .  S
O1418      C1420   1.255       .  A
O1418     Al1419   1.880       .  S
Al1419     O1428   1.778       .  S
C1420      O1433   1.258       .  A
C1420      C1725   1.476       .  S
O1421      C1431   1.265       .  A
O1421     Al1423   1.923       .  S
O1422      C1435   1.272       .  A
O1422     Al1432   1.936       .  S
Al1423     O1436   1.899       .  S
Al1423     O1433   1.921       .  S
Al1423     O1428   1.787       .  S
O1424      C1431   1.260       .  A
O1424     Al1432   1.899       .  S
O1425      C1434   1.255       .  A
O1425     Al1432   1.913       .  S
O1426     Al1432   1.911       .  S
O1428     Al1432   1.786       .  S
O1429      C1430   1.268       .  A
C1430      C1776   1.474       .  S
C1431      C1764   1.479       .  S
C1434      C1824   1.479       .  S
C1435      O1436   1.264       .  A
C1435      C1737   1.474       .  S
O1437      C1452   1.258       .  A
C1438      O1448   1.269       .  A
C1438      O1439   1.269       .  A
C1438      C1716   1.496       .  S
O1440      C1442   1.257       .  A
Al1441     O1449   1.907       .  S
Al1441     O1451   1.933       .  S
C1442      O1455   1.259       .  A
O1443      C1453   1.266       .  A
O1443     Al1445   1.924       .  S
O1444      C1457   1.268       .  A
O1444     Al1454   1.933       .  S
Al1445     O1458   1.897       .  S
Al1445     O1455   1.921       .  S
Al1445     O1450   1.784       .  S
O1446      C1453   1.263       .  A
O1446     Al1454   1.907       .  S
O1447      C1456   1.258       .  A
O1447     Al1454   1.905       .  S
O1448     Al1454   1.914       .  S
O1450     Al1454   1.783       .  S
O1451      C1452   1.267       .  A
C1452      C1689   1.474       .  S
C1453      C1704   1.480       .  S
C1456      C1680   1.487       .  S
C1457      O1458   1.262       .  A
C1457      C1728   1.474       .  S
O1459      C1474   1.260       .  A
C1460      O1470   1.269       .  A
C1460      O1461   1.275       .  A
C1460      C1644   1.503       .  S
O1461     Al1463   1.949       .  S
O1462      C1464   1.255       .  A
O1462     Al1463   1.894       .  S
Al1463     O1472   1.773       .  S
C1464      O1477   1.255       .  A
C1464      C1812   1.471       .  S
O1465      C1475   1.267       .  A
O1465     Al1467   1.918       .  S
O1466      C1479   1.270       .  A
O1466     Al1476   1.936       .  S
Al1467     O1480   1.889       .  S
Al1467     O1477   1.909       .  S
Al1467     O1472   1.779       .  S
O1468      C1475   1.263       .  A
O1468     Al1476   1.916       .  S
O1469      C1478   1.255       .  A
O1469     Al1476   1.908       .  S
O1470     Al1476   1.905       .  S
O1472     Al1476   1.785       .  S
O1473      C1474   1.271       .  A
C1474      C1653   1.476       .  S
C1475      C1665   1.466       .  S
C1478      C1677   1.475       .  S
C1479      O1480   1.261       .  A
C1479      C1800   1.469       .  S
O1481      C1496   1.260       .  A
O1481     Al1489   1.890       .  S
C1482      O1492   1.271       .  A
C1482      O1483   1.272       .  A
C1482      C1752   1.504       .  S
O1483     Al1485   1.934       .  S
O1484      C1486   1.257       .  A
O1484     Al1485   1.889       .  S
Al1485     O1493   1.908       .  S
Al1485     O1495   1.932       .  S
Al1485     O1494   1.777       .  S
C1486      O1499   1.252       .  A
C1486      C1617   1.466       .  S
O1487      C1497   1.266       .  A
O1487     Al1489   1.930       .  S
O1488      C1501   1.272       .  A
O1488     Al1498   1.943       .  S
Al1489     O1502   1.888       .  S
Al1489     O1499   1.894       .  S
Al1489     O1494   1.784       .  S
O1490      C1497   1.260       .  A
O1490     Al1498   1.900       .  S
O1491      C1500   1.254       .  A
O1491     Al1498   1.900       .  S
O1492     Al1498   1.923       .  S
O1493      C1500   1.257       .  A
O1494     Al1498   1.784       .  S
O1495      C1496   1.266       .  A
C1496      C1701   1.474       .  S
C1497      C1692   1.475       .  S
C1500      C1632   1.483       .  S
C1501      O1502   1.260       .  A
C1501      C1605   1.476       .  S
O1503      C1518   1.256       .  A
O1503     Al1511   1.864       .  S
C1504      O1514   1.268       .  A
C1504      O1505   1.275       .  A
C1504      C1788   1.497       .  S
O1505     Al1507   1.951       .  S
O1506      C1508   1.255       .  A
O1506     Al1507   1.879       .  S
Al1507     O1515   1.902       .  S
Al1507     O1517   1.948       .  S
Al1507     O1516   1.773       .  S
C1508      O1521   1.262       .  A
C1508      C1593   1.476       .  S
O1509      C1519   1.262       .  A
O1509     Al1511   1.917       .  S
O1510      C1523   1.265       .  A
O1510     Al1520   1.908       .  S
Al1511     O1524   1.921       .  S
Al1511     O1521   1.934       .  S
Al1511     O1516   1.781       .  S
O1512      C1519   1.262       .  A
O1512     Al1520   1.921       .  S
O1513      C1522   1.258       .  A
O1513     Al1520   1.915       .  S
O1514     Al1520   1.897       .  S
O1515      C1522   1.256       .  A
O1516     Al1520   1.785       .  S
O1517      C1518   1.270       .  A
C1518      C1668   1.485       .  S
C1519      C1656   1.479       .  S
C1522      C1629   1.485       .  S
C1523      O1524   1.269       .  A
C1523      C1581   1.462       .  S
O1525      C1540   1.259       .  A
O1525     Al1533   1.881       .  S
C1526      O1536   1.267       .  A
C1526      O1527   1.269       .  A
C1526      C1713   1.500       .  S
O1527     Al1529   1.931       .  S
O1528      C1530   1.255       .  A
O1528     Al1529   1.873       .  S
Al1529     O1537   1.893       .  S
Al1529     O1539   1.932       .  S
Al1529     O1538   1.780       .  S
C1530      O1543   1.254       .  A
C1530      C1608   1.470       .  S
O1531      C1541   1.265       .  A
O1531     Al1533   1.920       .  S
O1532      C1545   1.268       .  A
O1532     Al1542   1.930       .  S
Al1533     O1546   1.894       .  S
Al1533     O1543   1.909       .  S
Al1533     O1538   1.787       .  S
O1534      C1541   1.263       .  A
O1534     Al1542   1.915       .  S
O1535      C1544   1.259       .  A
O1535     Al1542   1.915       .  S
O1536     Al1542   1.911       .  S
O1537      C1544   1.256       .  A
O1538     Al1542   1.785       .  S
O1539      C1540   1.266       .  A
C1540      C1761   1.468       .  S
C1541      C1773   1.481       .  S
C1544      C1572   1.489       .  S
C1545      O1546   1.261       .  A
C1545      C1620   1.472       .  S
O1547      C1562   1.265       .  A
O1547     Al1555   1.889       .  S
C1548      O1558   1.282       .  A
C1548      O1549   1.272       .  A
C1548      C1641   1.503       .  S
O1549     Al1551   1.902       .  S
O1550      C1552   1.255       .  A
O1550     Al1551   1.891       .  S
Al1551     O1559   1.891       .  S
Al1551     O1561   1.939       .  S
Al1551     O1560   1.789       .  S
C1552      O1565   1.258       .  A
C1552      C1584   1.467       .  S
O1553      C1563   1.250       .  A
O1553     Al1555   1.881       .  S
O1554      C1567   1.269       .  A
O1554     Al1564   1.941       .  S
Al1555     O1568   1.869       .  S
Al1555     O1565   1.916       .  S
Al1555     O1560   1.786       .  S
O1556      C1563   1.251       .  A
O1556     Al1564   1.871       .  S
O1557      C1566   1.248       .  A
O1557     Al1564   1.900       .  S
O1558     Al1564   1.961       .  S
O1559      C1566   1.247       .  A
O1560     Al1564   1.786       .  S
O1561      C1562   1.275       .  A
C1562      C1836   1.483       .  S
C1563      C1848   1.462       .  S
C1566      C1569   1.470       .  S
C1567      O1568   1.259       .  A
C1567      C1596   1.479       .  S
C1569      C1570   1.400       .  A
C1569      C1574   1.403       .  A
C1570      C1571   1.400   1_565  A
C1570      H1575   1.084       .  S
C1571      C1572   1.415       .  A
C1571      O1576   1.372       .  S
C1572      C1573   1.410       .  A
C1573      C1574   1.403   1_545  A
C1573      H1577   1.083       .  S
C1574      O1578   1.371       .  S
O1576      H1580   0.992       .  S
O1578      H1579   0.992       .  S
C1581      C1582   1.395       .  A
C1581      C1586   1.409       .  A
C1582      C1583   1.393       .  A
C1582      H1587   1.083       .  S
C1583      C1584   1.411       .  A
C1583      O1588   1.374       .  S
C1584      C1585   1.401       .  A
C1585      C1586   1.404       .  A
C1585      H1589   1.084       .  S
C1586      O1590   1.370       .  S
O1588      H1592   0.992       .  S
O1590      H1591   0.991       .  S
C1593      C1594   1.408       .  A
C1594      H1599   1.084       .  S
C1595      C1596   1.408       .  A
C1595      O1600   1.371       .  S
C1596      C1597   1.406       .  A
C1597      C1598   1.397       .  A
C1597      H1601   1.084       .  S
C1598      O1602   1.373       .  S
O1602      H1603   0.992       .  S
C1605      C1606   1.403       .  A
C1605      C1610   1.415       .  A
C1606      C1607   1.408       .  A
C1606      H1611   1.083       .  S
C1607      C1608   1.412       .  A
C1607      O1612   1.370       .  S
C1608      C1609   1.392       .  A
C1609      C1610   1.390       .  A
C1609      H1613   1.085       .  S
C1610      O1614   1.373       .  S
O1612      H1616   0.991       .  S
O1614      H1615   0.992       .  S
C1617      C1622   1.412       .  A
C1618      C1619   1.393       .  A
C1618      H1623   1.084       .  S
C1619      C1620   1.410       .  A
C1619      O1624   1.370       .  S
C1620      C1621   1.402       .  A
C1621      H1625   1.084       .  S
C1622      O1626   1.371       .  S
O1624      H1628   0.992       .  S
O1626      H1627   0.992       .  S
C1629      C1630   1.407       .  A
C1629      C1634   1.410       .  A
C1630      C1631   1.402       .  A
C1630      H1635   1.083       .  S
C1631      C1632   1.408       .  A
C1631      O1636   1.372       .  S
C1632      C1633   1.407       .  A
C1633      C1634   1.401       .  A
C1633      H1637   1.084       .  S
C1634      O1638   1.372       .  S
O1636      H1640   0.992       .  S
O1638      H1639   0.992       .  S
C1641      C1642   1.408       .  A
C1641      C1646   1.416       .  A
C1642      C1643   1.409       .  A
C1642      H1647   1.083       .  S
C1643      C1644   1.415       .  A
C1643      O1648   1.371       .  S
C1644      C1645   1.408       .  A
C1645      C1646   1.405       .  A
C1645      H1649   1.083       .  S
C1646      O1650   1.371       .  S
O1648      H1652   0.992       .  S
O1650      H1651   0.992       .  S
C1653      C1654   1.399       .  A
C1653      C1658   1.411       .  A
C1654      C1655   1.399       .  A
C1654      H1659   1.083       .  S
C1655      C1656   1.411       .  A
C1655      O1660   1.371       .  S
C1656      C1657   1.402       .  A
C1657      C1658   1.405       .  A
C1657      H1661   1.084       .  S
C1658      O1662   1.371       .  S
O1660      H1664   0.992       .  S
O1662      H1663   0.991       .  S
C1665      C1666   1.405       .  A
C1665      C1670   1.400       .  A
C1666      C1667   1.404       .  A
C1666      H1671   1.084       .  S
C1667      C1668   1.410       .  A
C1667      O1672   1.372       .  S
C1668      C1669   1.410       .  A
C1669      C1670   1.396       .  A
C1669      H1673   1.081       .  S
C1670      O1674   1.372       .  S
O1672      H1676   0.992       .  S
O1674      H1675   0.991       .  S
C1677      C1678   1.404       .  A
C1678      C1679   1.403   1_565  A
C1678      H1683   1.084       .  S
C1679      O1684   1.372       .  S
C1680      C1681   1.410       .  A
C1681      C1682   1.400   1_545  A
C1681      H1685   1.083       .  S
C1682      O1686   1.372       .  S
O1684      H1688   0.992       .  S
O1686      H1687   0.992       .  S
C1689      C1690   1.407       .  A
C1689      C1694   1.404       .  A
C1690      C1691   1.405       .  A
C1690      H1695   1.083       .  S
C1691      C1692   1.406       .  A
C1691      O1696   1.372       .  S
C1692      C1693   1.407       .  A
C1693      C1694   1.397       .  A
C1693      H1697   1.084       .  S
C1694      O1698   1.372       .  S
O1696      H1700   0.992       .  S
O1698      H1699   0.991       .  S
C1701      C1702   1.397       .  A
C1701      C1706   1.411       .  A
C1702      C1703   1.397       .  A
C1702      H1707   1.084       .  S
C1703      C1704   1.413       .  A
C1703      O1708   1.372       .  S
C1704      C1705   1.403       .  A
C1705      C1706   1.407       .  A
C1705      H1709   1.083       .  S
C1706      O1710   1.371       .  S
O1708      H1712   0.992       .  S
O1710      H1711   0.992       .  S
C1713      C1714   1.410       .  A
C1713      C1718   1.414       .  A
C1714      C1715   1.407       .  A
C1714      H1719   1.083       .  S
C1715      C1716   1.411       .  A
C1715      O1720   1.372       .  S
C1716      C1717   1.408       .  A
C1717      C1718   1.406       .  A
C1717      H1721   1.084       .  S
C1718      O1722   1.372       .  S
O1720      H1724   0.992       .  S
O1722      H1723   0.992       .  S
C1726      C1727   1.410       .  A
C1727      C1728   1.407       .  A
C1727      O1732   1.372       .  S
C1729      C1730   1.393       .  A
C1729      H1733   1.083       .  S
C1730      O1734   1.373       .  S
O1732      H1736   0.992       .  S
O1734      H1735   0.991       .  S
C1737      C1738   1.404       .  A
C1737      C1742   1.407       .  A
C1738      C1739   1.394       .  A
C1738      H1743   1.081       .  S
C1739      C1740   1.403       .  A
C1740      C1741   1.408       .  A
C1741      C1742   1.409       .  A
C1741      H1745   1.084       .  S
C1742      O1746   1.372       .  S
O1744      H1748   0.992       .  S
O1746      H1747   0.992       .  S
C1749      C1754   1.414       .  A
C1750      C1751   1.409       .  A
C1750      H1755   1.083       .  S
C1751      C1752   1.413       .  A
C1751      O1756   1.371       .  S
C1753      C1754   1.406       .  A
C1753      H1757   1.083       .  S
C1754      O1758   1.372       .  S
O1756      H1760   0.992       .  S
O1758      H1759   0.992       .  S
C1761      C1762   1.405       .  A
C1761      C1766   1.402       .  A
C1762      C1763   1.404       .  A
C1762      H1767   1.083       .  S
C1763      C1764   1.407       .  A
C1763      O1768   1.371       .  S
C1764      C1765   1.408       .  A
C1765      C1766   1.395       .  A
C1765      H1769   1.084       .  S
C1766      O1770   1.372       .  S
O1768      H1772   0.992       .  S
O1770      H1771   0.991       .  S
C1773      C1774   1.404       .  A
C1773      C1778   1.413       .  A
C1774      C1775   1.405       .  A
C1774      H1779   1.084       .  S
C1775      C1776   1.411       .  A
C1775      O1780   1.371       .  S
C1776      C1777   1.398       .  A
C1777      C1778   1.400       .  A
C1777      H1781   1.084       .  S
C1778      O1782   1.372       .  S
O1780      H1784   0.992       .  S
O1782      H1783   0.992       .  S
C1785      C1786   1.407       .  A
C1786      H1791   1.082       .  S
C1787      C1788   1.414       .  A
C1788      C1789   1.407       .  A
C1789      C1790   1.403       .  A
C1789      H1793   1.083       .  S
C1790      O1794   1.372       .  S
O1792      H1796   0.992       .  S
O1794      H1795   0.992       .  S
C1798      C1799   1.406       .  A
C1798      H1803   1.081       .  S
C1799      C1800   1.404       .  A
C1799      O1804   1.372       .  S
C1801      C1802   1.388       .  A
C1801      H1805   1.082       .  S
O1804      H1808   0.992       .  S
O1806      H1807   0.991       .  S
C1809      C1810   1.401       .  A
C1809      C1814   1.408   1_556  A
C1810      C1811   1.404       .  A
C1810      H1815   1.084       .  S
C1811      O1816   1.371       .  S
C1812      C1813   1.398       .  A
C1813      H1817   1.084       .  S
C1814      O1818   1.369       .  S
O1816      H1820   0.991       .  S
O1818      H1819   0.991       .  S
C1821      C1826   1.417       .  A
C1822      C1823   1.404       .  A
C1822      H1827   1.083       .  S
C1823      C1824   1.409       .  A
C1823      O1828   1.372       .  S
C1825      C1826   1.404       .  A
C1825      H1829   1.084       .  S
C1826      O1830   1.371       .  S
O1828      H1832   0.992       .  S
O1830      H1831   0.991       .  S
C1833      C1834   1.407       .  A
C1833      C1838   1.400       .  A
C1834      C1835   1.411       .  A
C1834      H1839   1.083       .  S
C1835      C1836   1.410       .  A
C1835      O1840   1.371       .  S
C1836      C1837   1.409       .  A
C1837      C1838   1.386       .  A
C1837      H1841   1.084       .  S
C1838      O1842   1.372       .  S
O1840      H1844   0.992       .  S
O1842      H1843   0.992       .  S
C1845      C1846   1.402       .  A
C1845      C1850   1.402       .  A
C1846      C1847   1.400       .  A
C1846      H1851   1.083       .  S
C1847      C1848   1.406       .  A
C1847      O1852   1.371       .  S
C1848      C1849   1.401       .  A
C1849      C1850   1.392       .  A
C1849      H1853   1.084       .  S
C1850      O1854   1.370       .  S
O1852      H1856   0.992       .  S
O1854      H1855   0.991       .  S
