geometry optimzed in LAMMPS
_audit_creation_date              2020-12-01 
_audit_creation_method            'lammps2cif' 
_symmetry_space_group_name_H-M    'P1' 
_symmetry_Int_Tables_number       1 
_symmetry_cell_setting            triclinic 
loop_ 
_symmetry_equiv_pos_as_xyz 
  x,y,z 
_cell_length_a                    42.82831895 
_cell_length_b                    32.68518690365785 
_cell_length_c                    43.51788888566577 
_cell_angle_alpha                 89.86739580510358 
_cell_angle_beta                  109.67704800066356 
_cell_angle_gamma                 89.27343733306996 
loop_ 
_atom_site_label 
_atom_site_type_symbol 
_atom_site_fract_x 
_atom_site_fract_y 
_atom_site_fract_z 
_atom_site_charge 
O1          O  0.42778881  0.97359675  0.00452050    -0.81000
C2          C  0.31743750  0.88242573  0.42961896     0.98400
O3          O  0.34635185  0.87755912  0.42761620    -0.70100
O4          O  0.37234127  0.94546583  0.41740689    -0.73700
Al5        Al  0.38837782  0.90600130  0.45018411     1.49000
C6          C  0.37847336  0.98291375  0.41926575     0.93600
O7          O  0.33689123  0.00120156  0.47277358    -0.79900
O8          O  0.37543312  0.91329353  0.03873263    -0.73500
Al9        Al  0.38221749  0.98435805  0.48805580     1.90100
O10         O  0.32134469  0.95206133  0.49870123    -0.72500
O11         O  0.36376004  0.85376987  0.99566385    -0.72400
O12         O  0.31418753  0.89803449  0.45475247    -0.78000
O13         O  0.40603567  0.85967918  0.47862201    -0.76200
O14         O  0.37266055  0.93202330  0.47799076    -1.12400
O15         O  0.43274626  0.93341022  0.46616105    -0.71600
C16         C  0.44484357  0.96070929  0.48798152     0.99200
C17         C  0.31667368  0.98643811  0.48501329     0.95600
Al18       Al  0.34619042  0.90627983  0.49547733     1.55600
O19         O  0.38467550  0.00133899  0.44611128    -0.76200
C20         C  0.38825582  0.83825861  0.49034686     0.99700
C21         C  0.38175962  0.94874085  0.05051504     0.94600
O22         O  0.38256982  0.97902665  0.03249346    -0.81500
O23         O  0.36738250  0.52924674  0.46438464    -0.81000
C24         C  0.43802119  0.62607819  0.07045044     0.98400
O25         O  0.43412417  0.63529622  0.04118769    -0.70100
O26         O  0.45124165  0.56890487  0.02046459    -0.73700
Al27       Al  0.41461420  0.60287625  0.50290862     1.49000
C28         C  0.45228720  0.53194880  0.01359904     0.93600
O29         O  0.39897327  0.50213845  0.05543028    -0.79900
O30         O  0.32584960  0.58257496  0.01780795    -0.73500
Al31       Al  0.38383518  0.51957798  0.01011658     1.90100
O32         O  0.37131485  0.54972549  0.07087839    -0.72500
O33         O  0.36746822  0.65104057  0.02738948    -0.72400
O34         O  0.41472908  0.60833708  0.07700182    -0.78000
O35         O  0.38044473  0.64129800  0.48376345    -0.76200
O36         O  0.38949683  0.57275168  0.01932029    -1.12400
O37         O  0.40213318  0.57622276  0.46148101    -0.71600
C38         C  0.38168274  0.54878679  0.44802287     0.99200
C39         C  0.38478356  0.51488631  0.07493650     0.95600
Al40       Al  0.37106345  0.59634120  0.04590190     1.55600
O41         O  0.42731927  0.50947878  0.00841452    -0.76200
C42         C  0.37247634  0.66531694  0.00238856     0.99700
C43         C  0.31750604  0.54571391  0.00884424     0.94600
O44         O  0.33911632  0.51932811  0.00838486    -0.81500
O45         O  0.08710270  0.97598950  0.24328143    -0.81000
C46         C  0.19588837  0.88018256  0.31984827     0.98400
O47         O  0.16649382  0.87565516  0.32036956    -0.70100
O48         O  0.13931783  0.94368399  0.33012432    -0.73700
Al49       Al  0.12492918  0.90533525  0.29674700     1.49000
C50         C  0.13503315  0.98172177  0.32834150     0.93600
O51         O  0.17796882  0.99974997  0.27620805    -0.79900
O52         O  0.14168430  0.91371597  0.20993735    -0.73500
Al53       Al  0.13279483  0.98436345  0.26030883     1.90100
O54         O  0.19482482  0.95031054  0.25141788    -0.72500
O55         O  0.15209443  0.85370483  0.25280866    -0.72400
O56         O  0.20054172  0.89574856  0.29530921    -0.78000
O57         O  0.10818584  0.86044217  0.26723404    -0.76200
O58         O  0.14208377  0.93163959  0.27024102    -1.12400
O59         O  0.08096828  0.93363598  0.27983294    -0.71600
C60         C  0.06940058  0.96212995  0.25867270     0.99200
C61         C  0.19884265  0.98458689  0.26479841     0.95600
Al62       Al  0.16969709  0.90539804  0.25382638     1.55600
O63         O  0.13015119  0.00070438  0.30183880    -0.76200
C64         C  0.12653250  0.83894582  0.25591721     0.99700
C65         C  0.13411644  0.94932731  0.19817555     0.94600
O66         O  0.13297103  0.97919716  0.21636977    -0.81500
O67         O  0.13793850  0.52951159  0.27817705    -0.81000
C68         C  0.06888764  0.62781225  0.17073822     0.98400
O69         O  0.07247408  0.63761314  0.19974764    -0.70100
O70         O  0.05435755  0.57131686  0.21924323    -0.73700
Al71       Al  0.09070081  0.60401897  0.23808632     1.49000
C72         C  0.05339568  0.53508222  0.22796018     0.93600
O73         O  0.10801641  0.50287860  0.18703723    -0.79900
O74         O  0.18080672  0.58088060  0.22575453    -0.73500
Al75       Al  0.12228345  0.51997092  0.23237369     1.90100
O76         O  0.13637538  0.54929209  0.17202519    -0.72500
O77         O  0.13917528  0.65043847  0.21547756    -0.72400
O78         O  0.09256928  0.60939509  0.16483820    -0.78000
O79         O  0.12456999  0.64092240  0.25822911    -0.76200
O80         O  0.11671104  0.57318922  0.22276246    -1.12400
O81         O  0.10191013  0.57681299  0.27955769    -0.71600
C82         C  0.12280611  0.54941347  0.29384057     0.99200
C83         C  0.12288179  0.51488967  0.16793091     0.95600
Al84       Al  0.13591163  0.59607558  0.19677649     1.55600
O85         O  0.07837748  0.51155973  0.23360435    -0.76200
C86         C  0.13390989  0.66462502  0.24042056     0.99700
C87         C  0.18916248  0.54371808  0.23480557     0.94600
O88         O  0.16735924  0.51807144  0.23486056    -0.81500
O89         O  0.33410157  0.47363905  0.23940867    -0.81000
C90         C  0.44602888  0.38313889  0.31791480     0.98400
O91         O  0.41686866  0.37785005  0.31895407    -0.70100
O92         O  0.38828857  0.44588269  0.32787442    -0.73700
Al93       Al  0.37441237  0.40652432  0.29514974     1.49000
C94         C  0.38125437  0.48338123  0.32525259     0.93600
O95         O  0.42383667  0.50306909  0.27362250    -0.79900
O96         O  0.39112149  0.41457992  0.20842809    -0.73500
Al97       Al  0.37930736  0.48520519  0.25710149     1.90100
O98         O  0.44276302  0.45444597  0.24965079    -0.72500
O99         O  0.40273249  0.35541998  0.25182073    -0.72400
O100        O  0.44978203  0.40019624  0.29356139    -0.78000
O101        O  0.35865612  0.36103528  0.26623959    -0.76200
O102        O  0.39053845  0.43315011  0.26809607    -1.12400
O103        O  0.32956897  0.43340842  0.27795109    -0.71600
C104        C  0.31697686  0.46041644  0.25564000     0.99200
C105        C  0.44561462  0.48878652  0.26299202     0.95600
Al106      Al  0.41897611  0.40809374  0.25224310     1.55600
O107        O  0.37498636  0.50170439  0.29820749    -0.76200
C108        C  0.37751650  0.33994350  0.25527875     0.99700
C109        C  0.38317044  0.44970260  0.19598697     0.94600
O110        O  0.38073553  0.47991804  0.21338668    -0.81500
O111        O  0.39099261  0.02877463  0.27909418    -0.81000
C112        C  0.32114493  0.12740535  0.17283686     0.98400
O113        O  0.32478240  0.13710750  0.20192116    -0.70100
O114        O  0.30737214  0.07134236  0.22282217    -0.73700
Al115      Al  0.34391241  0.10415128  0.24051936     1.49000
C116        C  0.30657985  0.03443208  0.22994246     0.93600
O117        O  0.36060807  0.00413572  0.18805101    -0.79900
O118        O  0.43326125  0.08235666  0.22760943    -0.73500
Al119      Al  0.37519194  0.02026979  0.23342878     1.90100
O120        O  0.38972350  0.05005645  0.17361455    -0.72500
O121        O  0.39113051  0.15107134  0.21647722    -0.72400
O122        O  0.34487727  0.10938000  0.16666575    -0.78000
O123        O  0.37773690  0.14166080  0.25986965    -0.76200
O124        O  0.36948339  0.07354213  0.22446245    -1.12400
O125        O  0.35623991  0.07688523  0.28212152    -0.71600
C126        C  0.37665262  0.04856464  0.29548211     0.99200
C127        C  0.37577192  0.01596351  0.16922170     0.95600
Al128      Al  0.38842629  0.09674203  0.19835303     1.55600
O129        O  0.33156229  0.01124879  0.23459057    -0.76200
C130        C  0.38633703  0.16538920  0.24153671     0.99700
C131        C  0.44187946  0.04528239  0.23669405     0.94600
O132        O  0.42025839  0.01899162  0.23594576    -0.81500
O133        O  0.12288034  0.02805249  0.46744314    -0.81000
C134        C  0.19000494  0.12712564  0.07278135     0.98400
O135        O  0.18653159  0.13632172  0.04365446    -0.70100
O136        O  0.20532582  0.06924900  0.02544774    -0.73700
Al137      Al  0.16876325  0.10265040  0.50597843     1.49000
C138        C  0.20682195  0.03238051  0.01858270     0.93600
O139        O  0.15133534  0.00326633  0.05880242    -0.79900
O140        O  0.07831208  0.08260536  0.01743861    -0.73500
Al141      Al  0.13777243  0.01954648  0.01322248     1.90100
O142        O  0.12246855  0.05124221  0.07207915    -0.72500
O143        O  0.11989454  0.15128223  0.02751381    -0.72400
O144        O  0.16630518  0.10971429  0.07891768    -0.78000
O145        O  0.13475384  0.14050885  0.48511602    -0.76200
O146        O  0.14280680  0.07295369  0.02160624    -1.12400
O147        O  0.15798520  0.07495441  0.46521873    -0.71600
C148        C  0.13776067  0.04743392  0.45154145     0.99200
C149        C  0.13617137  0.01657469  0.07733769     0.95600
Al150      Al  0.12304826  0.09713564  0.04674912     1.55600
O151        O  0.18199204  0.00956511  0.01317911    -0.76200
C152        C  0.12599656  0.16505795  0.00292912     0.99700
C153        C  0.07034289  0.04548981  0.00880015     0.94600
O154        O  0.09247645  0.01913173  0.00977343    -0.81500
O155        O  0.17506965  0.47500555  0.00320902    -0.81000
C156        C  0.06773894  0.38008966  0.42676284     0.98400
O157        O  0.09695577  0.37698125  0.42532908    -0.70100
O158        O  0.12293404  0.44556966  0.41593446    -0.73700
Al159      Al  0.13806446  0.40589532  0.44896906     1.49000
C160        C  0.12680790  0.48352364  0.41801605     0.93600
O161        O  0.08354355  0.49918729  0.47063134    -0.79900
O162        O  0.12188952  0.41212786  0.03672581    -0.73500
Al163      Al  0.12911671  0.48376930  0.48635690     1.90100
O164        O  0.06780263  0.44873378  0.49508953    -0.72500
O165        O  0.11331765  0.35271457  0.99408286    -0.72400
O166        O  0.06326294  0.39455141  0.45171089    -0.78000
O167        O  0.15572978  0.35977244  0.47747833    -0.76200
O168        O  0.12083340  0.43116096  0.47614155    -1.12400
O169        O  0.18161273  0.43332881  0.46629940    -0.71600
C170        C  0.19304897  0.46069698  0.48804170     0.99200
C171        C  0.06302873  0.48338680  0.48194844     0.95600
Al172      Al  0.09414752  0.40417778  0.49290212     1.55600
O173        O  0.13146684  0.50154964  0.44477080    -0.76200
C174        C  0.13850400  0.33804508  0.48955717     0.99700
C175        C  0.12806434  0.44757811  0.04853756     0.94600
O176        O  0.12903492  0.47780677  0.03054188    -0.81500
C177        C  0.13871314  0.27766909  0.02371970     0.24400
C178        C  0.14427007  0.29388408  0.49610650    -0.23700
C179        C  0.14436081  0.26743383  0.47078603     0.19300
C180        C  0.13726381  0.22580822  0.47231727     0.24400
C181        C  0.12979687  0.20986839  0.49924890    -0.23600
C182        C  0.13150891  0.23635640  0.02530233     0.19300
F183        F  0.12638994  0.22247580  0.05263198    -0.13600
F184        F  0.13855210  0.30258944  0.04861783    -0.15900
F185        F  0.13711904  0.20137672  0.44708423    -0.15900
F186        F  0.14881226  0.28244779  0.44346041    -0.13600
C187        C  0.25222326  0.13540110  0.08979311     0.24400
C188        C  0.22317180  0.13415496  0.09851188    -0.23700
C189        C  0.22700031  0.13644958  0.13180391     0.19300
C190        C  0.25881431  0.13784555  0.15564261     0.24400
C191        C  0.28786528  0.13459940  0.14700859    -0.23600
C192        C  0.28400323  0.13447876  0.11365963     0.19300
F193        F  0.31101485  0.13306626  0.10400170    -0.13600
F194        F  0.25014183  0.13571657  0.05797499    -0.15900
F195        F  0.26098803  0.14072268  0.18739954    -0.15900
F196        F  0.19995246  0.13715065  0.14140481    -0.13600
C197        C  0.03785024  0.37141533  0.36657195     0.24400
C198        C  0.03761889  0.36943168  0.39868602    -0.23700
C199        C  0.00687500  0.36351323  0.40350837     0.19300
C200        C  0.47689699  0.36459954  0.37709536     0.24400
C201        C  0.47695774  0.37139011  0.34524420    -0.23600
C202        C  0.00800081  0.37210238  0.34020504     0.19300
F203        F  0.00967085  0.37566836  0.30969356    -0.13600
F204        F  0.06675832  0.37598575  0.36060163    -0.15900
F205        F  0.44786469  0.36159835  0.38304617    -0.15900
F206        F  0.00562345  0.35861295  0.43406387    -0.13600
C207        C  0.38314432  0.27918349  0.22357078     0.24400
C208        C  0.37337776  0.29575208  0.24879433    -0.23700
C209        C  0.36844469  0.26929011  0.27210156     0.19300
C210        C  0.37406020  0.22706682  0.27071576     0.24400
C211        C  0.38480961  0.21045783  0.24590167    -0.23600
C212        C  0.38890357  0.23724180  0.22216408     0.19300
F213        F  0.39842676  0.22307222  0.19731952    -0.13600
F214        F  0.38821941  0.30404898  0.20068048    -0.15900
F215        F  0.36905920  0.20262012  0.29384517    -0.15900
F216        F  0.36022566  0.28453106  0.29740331    -0.13600
C217        C  0.23430836  0.49347750  0.26551463     0.24400
C218        C  0.22386172  0.52682241  0.24335333    -0.23700
C219        C  0.24406899  0.53747475  0.22515912     0.19300
C220        C  0.27326673  0.51495079  0.22826062     0.24400
C221        C  0.28364633  0.48103732  0.25013531    -0.23600
C222        C  0.26374350  0.47118498  0.26900307     0.19300
F223        F  0.27260408  0.43987019  0.29090642    -0.13600
F224        F  0.21564336  0.48201198  0.28376763    -0.15900
F225        F  0.29131996  0.52675715  0.20951212    -0.15900
F226        F  0.23474853  0.56851338  0.20301786    -0.13600
C227        C  0.46860193  0.53739237  0.23507476     0.24400
C228        C  0.47364442  0.51206937  0.26231809    -0.23700
C229        C  0.00507780  0.49509501  0.27864593     0.19300
C230        C  0.03076159  0.50082932  0.26637221     0.24400
C231        C  0.02515921  0.52370671  0.23756908    -0.23600
C232        C  0.99413644  0.54290108  0.22254280     0.19300
F233        F  0.98815493  0.56560992  0.19497617    -0.13600
F234        F  0.43790569  0.55281422  0.21846708    -0.15900
F235        F  0.06106324  0.48424197  0.28278034    -0.15900
F236        F  0.00990567  0.46985919  0.30473652    -0.13600
C237        C  0.15121396  0.50833793  0.34474402     0.24400
C238        C  0.12738030  0.53817479  0.32833914    -0.23700
C239        C  0.10547111  0.55339791  0.34395263     0.19300
C240        C  0.10621450  0.53728448  0.37415290     0.24400
C241        C  0.12852226  0.50557058  0.38903841    -0.23600
C242        C  0.15146621  0.49197923  0.37449700     0.19300
F243        F  0.17376454  0.46185631  0.38884427    -0.13600
F244        F  0.17364304  0.49370279  0.33153054    -0.15900
F245        F  0.08374708  0.55074698  0.38774388    -0.15900
F246        F  0.08210371  0.58230313  0.32933510    -0.13600
C247        C  0.10483865  0.44468626  0.09426289     0.24400
C248        C  0.13072920  0.45551819  0.08270366    -0.23700
C249        C  0.15591023  0.48070702  0.10175940     0.19300
C250        C  0.15429636  0.49709337  0.13073390     0.24400
C251        C  0.12674380  0.48977878  0.14091374    -0.23600
C252        C  0.10279808  0.46182306  0.12321433     0.19300
F253        F  0.07634158  0.45339232  0.13254052    -0.13600
F254        F  0.08001233  0.42043123  0.07608141    -0.15900
F255        F  0.17934068  0.52158605  0.14824983    -0.15900
F256        F  0.18147066  0.49092760  0.09152489    -0.13600
C257        C  0.11457648  0.76824439  0.27049409     0.24400
C258        C  0.12151727  0.79499877  0.24848294    -0.23700
C259        C  0.13277722  0.77860011  0.22411580     0.19300
C260        C  0.13859091  0.73668662  0.22270877     0.24400
C261        C  0.13257460  0.70963229  0.24521948    -0.23600
C262        C  0.12000219  0.72598696  0.26892360     0.19300
F263        F  0.11302210  0.70126585  0.29080901    -0.13600
F264        F  0.10449395  0.78314692  0.29476692    -0.15900
F265        F  0.15026219  0.72281685  0.19918940    -0.15900
F266        F  0.13950923  0.80364573  0.20224122    -0.13600
C267        C  0.15423509  0.03521870  0.37140419     0.24400
C268        C  0.13319446  0.00290765  0.35736598    -0.23700
C269        C  0.11128030  0.98831917  0.37250784     0.19300
C270        C  0.11124708  0.00458937  0.40206941     0.24400
C271        C  0.13363658  0.03550332  0.41747875    -0.23600
C272        C  0.15467912  0.05131176  0.40136798     0.19300
F273        F  0.17694618  0.08082491  0.41525680    -0.13600
F274        F  0.17578650  0.04936783  0.35717659    -0.15900
F275        F  0.09005200  0.98881517  0.41606721    -0.15900
F276        F  0.09018352  0.95754557  0.35883106    -0.13600
C277        C  0.15127173  0.94163760  0.14855337     0.24400
C278        C  0.12952750  0.95814958  0.16365355    -0.23700
C279        C  0.10734641  0.98941897  0.14780811     0.19300
C280        C  0.10854549  0.00637480  0.11894743     0.24400
C281        C  0.13254695  0.99298160  0.10522039    -0.23600
C282        C  0.15281272  0.95902732  0.11946415     0.19300
F283        F  0.17525428  0.94415970  0.10638783    -0.13600
F284        F  0.17282189  0.91095964  0.16324776    -0.15900
F285        F  0.08663078  0.03715997  0.10517933    -0.15900
F286        F  0.08537846  0.00511202  0.16121078    -0.13600
C287        C  0.48728183  0.99654165  0.26887838     0.24400
C288        C  0.47676667  0.02923322  0.24613235    -0.23700
C289        C  0.99707115  0.03968796  0.22803777     0.19300
C290        C  0.02623768  0.01709428  0.23138544     0.24400
C291        C  0.03640399  0.98330683  0.25338262    -0.23600
C292        C  0.01669936  0.97415598  0.27261870     0.19300
F293        F  0.02578870  0.94358401  0.29518683    -0.13600
F294        F  0.46864965  0.98577835  0.28735950    -0.15900
F295        F  0.04440195  0.02860805  0.21267093    -0.15900
F296        F  0.98778768  0.07046691  0.20566360    -0.13600
C297        C  0.24712170  0.04024428  0.22416614     0.24400
C298        C  0.27827919  0.02117081  0.23865315    -0.23700
C299        C  0.28392641  0.99623566  0.26641345     0.19300
C300        C  0.25834467  0.98906550  0.27853543     0.24400
C301        C  0.22700662  0.00683723  0.26321770    -0.23600
C302        C  0.22166056  0.03326379  0.23654148     0.19300
F303        F  0.19088393  0.04888158  0.22051172    -0.13600
F304        F  0.24104170  0.06452526  0.19740155    -0.15900
F305        F  0.26329723  0.96224645  0.30368957    -0.15900
F306        F  0.31427317  0.97930548  0.28213572    -0.13600
C307        C  0.47481619  0.63607007  0.12937719     0.24400
C308        C  0.47110597  0.63372712  0.09610066    -0.23700
C309        C  0.00016159  0.63545095  0.08745723     0.19300
C310        C  0.03191844  0.63506709  0.11142952     0.24400
C311        C  0.03567443  0.63504307  0.14477173    -0.23600
C312        C  0.00654677  0.63793521  0.15328346     0.19300
F313        F  0.00857887  0.64086521  0.18499932    -0.13600
F314        F  0.44772364  0.63620832  0.13891781    -0.15900
F315        F  0.05901539  0.63433741  0.10190325    -0.15900
F316        F  0.99809640  0.63559131  0.05564367    -0.13600
C317        C  0.40535018  0.46063899  0.11934152     0.24400
C318        C  0.38172128  0.49030633  0.10247206    -0.23700
C319        C  0.35533328  0.49990783  0.11400388     0.19300
C320        C  0.35458922  0.48399429  0.14333839     0.24400
C321        C  0.37961186  0.45725609  0.16163510    -0.23600
C322        C  0.40426980  0.44409981  0.14886393     0.19300
F323        F  0.42887979  0.41812415  0.16629989    -0.13600
F324        F  0.43063473  0.44992756  0.10864874    -0.15900
F325        F  0.33017254  0.49642740  0.15476301    -0.15900
F326        F  0.33073516  0.52647348  0.09764549    -0.13600
C327        C  0.35866291  0.50165909  0.40049061     0.24400
C328        C  0.37692265  0.53681812  0.41375190    -0.23700
C329        C  0.39401490  0.55691768  0.39543368     0.19300
C330        C  0.39428496  0.54083755  0.36564091     0.24400
C331        C  0.37793996  0.50427792  0.35395044    -0.23600
C332        C  0.35942392  0.48551241  0.37111825     0.19300
F333        F  0.34245721  0.45075850  0.35966432    -0.13600
F334        F  0.34128211  0.48143837  0.41659913    -0.15900
F335        F  0.41220438  0.55950361  0.34931580    -0.15900
F336        F  0.41172721  0.59110948  0.40691111    -0.13600
C337        C  0.24266752  0.47835091  0.97102407     0.24400
C338        C  0.22616781  0.48056078  0.49405988    -0.23700
C339        C  0.23889437  0.50777579  0.52061109     0.19300
C340        C  0.26654219  0.53231979  0.52358469     0.24400
C341        C  0.28311005  0.52973087  0.00078344    -0.23600
C342        C  0.27080903  0.50227013  0.97451706     0.19300
F343        F  0.28652030  0.49815573  0.95227695    -0.13600
F344        F  0.23149726  0.45336628  0.94484227    -0.15900
F345        F  0.27812510  0.55711859  0.54981870    -0.15900
F346        F  0.22484424  0.51042492  0.54425148    -0.13600
C347        C  0.47663860  0.49618183  0.47718861     0.24400
C348        C  0.48124560  0.51793705  0.00616180    -0.23700
C349        C  0.01240021  0.53419528  0.02337147     0.19300
C350        C  0.03883333  0.52805823  0.01213686     0.24400
C351        C  0.03441790  0.50525748  0.48379755    -0.23600
C352        C  0.00322418  0.48969735  0.46619021     0.19300
F353        F  0.99922687  0.46585912  0.43963676    -0.13600
F354        F  0.44634806  0.48193264  0.45921858    -0.15900
F355        F  0.06947073  0.54088002  0.03053597    -0.15900
F356        F  0.01736257  0.55506049  0.05151245    -0.13600
C357        C  0.25674240  0.86238996  0.34420336     0.24400
C358        C  0.22587852  0.86989167  0.34850434    -0.23700
C359        C  0.22538041  0.87430966  0.38038404     0.19300
C360        C  0.25510131  0.87511488  0.40694404     0.24400
C361        C  0.28631226  0.87197856  0.40232735    -0.23600
C362        C  0.28657253  0.86344943  0.37075642     0.19300
F363        F  0.31568348  0.85841321  0.36513072    -0.13600
F364        F  0.25821105  0.85583276  0.31391322    -0.15900
F365        F  0.25308623  0.88107657  0.43709859    -0.15900
F366        F  0.19631648  0.88126820  0.38574471    -0.13600
C367        C  0.38317415  0.73566973  0.02637105     0.24400
C368        C  0.37600377  0.71023321  0.49881109    -0.23700
C369        C  0.37801152  0.72694388  0.46960005     0.19300
C370        C  0.38602133  0.76821487  0.46784020     0.24400
C371        C  0.39228762  0.79362619  0.49519125    -0.23600
C372        C  0.39100206  0.77679686  0.02446000     0.19300
F373        F  0.39597933  0.80093815  0.05100404    -0.13600
F374        F  0.38313484  0.72081633  0.05552873    -0.15900
F375        F  0.38512833  0.78413244  0.43870409    -0.15900
F376        F  0.37146094  0.70360556  0.44244237    -0.13600
C377        C  0.99668941  0.97463929  0.97281031     0.24400
C378        C  0.47744931  0.98204283  0.49293049    -0.23700
C379        C  0.48760562  0.01450357  0.51584064     0.19300
C380        C  0.01600600  0.03770062  0.51890883     0.24400
C381        C  0.03572693  0.02926590  0.99965575    -0.23600
C382        C  0.02544917  0.99757015  0.97634035     0.19300
F383        F  0.04375737  0.98824495  0.95712147    -0.13600
F384        F  0.98782866  0.94516748  0.94967184    -0.15900
F385        F  0.02526794  0.06695678  0.54220516    -0.15900
F386        F  0.47021063  0.02408134  0.53584749    -0.13600
C387        C  0.25711675  0.99315688  0.96951800     0.24400
C388        C  0.28829302  0.00885822  0.48689846    -0.23700
C389        C  0.29288058  0.03124403  0.51544161     0.18500
C390        C  0.26678378  0.03627788  0.52737138     0.24400
C391        C  0.23577096  0.01924747  0.01065008    -0.23600
C392        C  0.23094368  0.99820762  0.98132358     0.19300
F393        F  0.20078636  0.98325798  0.96374937    -0.13600
F394        F  0.25283936  0.97022440  0.94245651    -0.15900
F395        F  0.27198965  0.05676844  0.55570755    -0.15900
F396        F  0.32348114  0.04463906  0.53340045    -0.13600
C397        C  0.40839071  0.99485698  0.13398325     0.24400
C398        C  0.37937258  0.99076349  0.14231187    -0.23700
C399        C  0.35358466  0.96652148  0.12264450     0.19300
C400        C  0.35574719  0.94945243  0.09381747     0.24400
C401        C  0.38362512  0.95662951  0.08434840    -0.23600
C402        C  0.41023434  0.97845622  0.10506314     0.19300
F403        F  0.43744412  0.98542133  0.09653459    -0.13600
F404        F  0.43462616  0.01631980  0.15326156    -0.15900
F405        F  0.32932828  0.92917071  0.07364354    -0.15900
F406        F  0.32531713  0.96219473  0.12981711    -0.13600
C407        C  0.36693904  0.04201828  0.37937211     0.24400
C408        C  0.38099742  0.00329261  0.38988003    -0.23700
C409        C  0.39695834  0.98213396  0.37113067     0.19300
C410        C  0.39744276  0.99819984  0.34162877     0.24400
C411        C  0.38148287  0.03581300  0.32968285    -0.23600
C412        C  0.36689434  0.05807163  0.34934897     0.19300
F413        F  0.35163427  0.09473440  0.33914596    -0.13600
F414        F  0.35168074  0.06321347  0.39721006    -0.15900
F415        F  0.41225745  0.97560091  0.32412202    -0.15900
F416        F  0.41188325  0.94521263  0.38122318    -0.13600
O417        O  0.42776749  0.97363246  0.50450771    -0.81000
C418        C  0.31744764  0.88241763  0.92961452     0.98400
O419        O  0.34635979  0.87755375  0.92760634    -0.70100
O420        O  0.37234870  0.94546803  0.91741322    -0.73700
Al421      Al  0.38838799  0.90598918  0.95017847     1.49000
C422        C  0.37849019  0.98291349  0.91928263     0.93600
O423        O  0.33691473  0.00118195  0.97279103    -0.79900
O424        O  0.37541818  0.91332926  0.53872946    -0.73500
Al425      Al  0.38223923  0.98433218  0.98807064     1.90100
O426        O  0.32136087  0.95203400  0.99870664    -0.72500
O427        O  0.36374398  0.85379613  0.49567149    -0.72400
O428        O  0.31420276  0.89801597  0.95475339    -0.78000
O429        O  0.40604421  0.85965048  0.97860242    -0.76200
O430        O  0.37267679  0.93200054  0.97799474    -1.12400
O431        O  0.43275949  0.93339761  0.96615734    -0.71600
C432        C  0.44485944  0.96069086  0.98798313     0.99200
C433        C  0.31669411  0.98641526  0.98502554     0.95600
Al434      Al  0.34620618  0.90625266  0.99547790     1.55600
O435        O  0.38470014  0.00132745  0.94613295    -0.76200
C436        C  0.38826660  0.83822898  0.99033050     0.99700
C437        C  0.38174399  0.94877801  0.55050883     0.94600
O438        O  0.38255051  0.97906243  0.53248333    -0.81500
O439        O  0.36739458  0.52918039  0.96439604    -0.81000
C440        C  0.43801849  0.62611202  0.57046069     0.98400
O441        O  0.43412161  0.63533740  0.54119881    -0.70100
O442        O  0.45123691  0.56895723  0.52045215    -0.73700
Al443      Al  0.41462171  0.60282211  0.00290658     1.49000
C444        C  0.45227918  0.53200401  0.51357539     0.93600
O445        O  0.39897838  0.50217294  0.55541282    -0.79900
O446        O  0.32584421  0.58260443  0.51781561    -0.73500
Al447      Al  0.38383064  0.51962614  0.51010296     1.90100
O448        O  0.37132002  0.54974786  0.57087510    -0.72500
O449        O  0.36745929  0.65107584  0.52740693    -0.72400
O450        O  0.41472629  0.60836602  0.57700812    -0.78000
O451        O  0.38045575  0.64124632  0.98374945    -0.76200
O452        O  0.38949242  0.57279593  0.51931898    -1.12400
O453        O  0.40214443  0.57615379  0.96148568    -0.71600
C454        C  0.38169356  0.54871671  0.94803138     0.99200
C455        C  0.38479455  0.51491262  0.57492619     0.95600
Al456      Al  0.37106032  0.59637131  0.54590803     1.55600
O457        O  0.42731062  0.50953545  0.50839087    -0.76200
C458        C  0.37246306  0.66535938  0.50240649     0.99700
C459        C  0.31750242  0.54574422  0.50884674     0.94600
O460        O  0.33911421  0.51936515  0.50837922    -0.81500
O461        O  0.08706316  0.97592997  0.74325900    -0.81000
C462        C  0.19588454  0.88020098  0.81985640     0.98400
O463        O  0.16649416  0.87567710  0.82038874    -0.70100
O464        O  0.13932282  0.94372246  0.83012266    -0.73700
Al465      Al  0.12492477  0.90534363  0.79676809     1.49000
C466        C  0.13500847  0.98175590  0.82831493     0.93600
O467        O  0.17791903  0.99975061  0.77615596    -0.79900
O468        O  0.14164880  0.91365928  0.70993425    -0.73500
Al469      Al  0.13275024  0.98433965  0.76027405     1.90100
O470        O  0.19478573  0.95029196  0.75138991    -0.72500
O471        O  0.15207895  0.85368556  0.75283918    -0.72400
O472        O  0.20052862  0.89575773  0.79530950    -0.78000
O473        O  0.10817961  0.86042575  0.76728168    -0.76200
O474        O  0.14206007  0.93162692  0.77023639    -1.12400
O475        O  0.08095934  0.93363431  0.77986002    -0.71600
C476        C  0.06937881  0.96210516  0.75868165     0.99200
C477        C  0.19879502  0.98457993  0.76475190     0.95600
Al478      Al  0.16967189  0.90537715  0.75382591     1.55600
O479        O  0.13010590  0.00071422  0.80179811    -0.76200
C480        C  0.12652531  0.83892544  0.75596580     0.99700
C481        C  0.13406979  0.94926086  0.69815500     0.94600
O482        O  0.13291955  0.97914322  0.71633528    -0.81500
O483        O  0.13795560  0.52951207  0.77818889    -0.81000
C484        C  0.06888736  0.62782976  0.67075577     0.98400
O485        O  0.07247509  0.63761822  0.69976722    -0.70100
O486        O  0.05436486  0.57129351  0.71923080    -0.73700
Al487      Al  0.09069928  0.60400384  0.73809360     1.49000
C488        C  0.05340782  0.53506476  0.72796378     0.93600
O489        O  0.10803508  0.50287797  0.68704495    -0.79900
O490        O  0.18081583  0.58088325  0.72574716    -0.73500
Al491      Al  0.12230028  0.51996891  0.73238239     1.90100
O492        O  0.13636638  0.54931779  0.67202286    -0.72500
O493        O  0.13918640  0.65043710  0.71551240    -0.72400
O494        O  0.09256958  0.60941928  0.66485305    -0.78000
O495        O  0.12456190  0.64090673  0.75825284    -0.76200
O496        O  0.11671966  0.57318825  0.72277152    -1.12400
O497        O  0.10190109  0.57678542  0.77955662    -0.71600
C498        C  0.12280805  0.54940089  0.79384589     0.99200
C499        C  0.12288652  0.51490733  0.66793127     0.95600
Al500      Al  0.13591451  0.59608811  0.69678658     1.55600
O501        O  0.07839395  0.51154699  0.73361596    -0.76200
C502        C  0.13391888  0.66461221  0.74045850     0.99700
C503        C  0.18917420  0.54371987  0.73479234     0.94600
O504        O  0.16737508  0.51807589  0.73486386    -0.81500
O505        O  0.33411924  0.47365298  0.73938604    -0.81000
C506        C  0.44603073  0.38312143  0.81790830     0.98400
O507        O  0.41686497  0.37782809  0.81893239    -0.70100
O508        O  0.38826794  0.44584735  0.82785174    -0.73700
Al509      Al  0.37441070  0.40650521  0.79511510     1.49000
C510        C  0.38124096  0.48334756  0.82524108     0.93600
O511        O  0.42385835  0.50306928  0.77364628    -0.79900
O512        O  0.39117054  0.41460433  0.70842444    -0.73500
Al513      Al  0.37932784  0.48520866  0.75710115     1.90100
O514        O  0.44279714  0.45446049  0.74967330    -0.72500
O515        O  0.40276538  0.35542739  0.75180222    -0.72400
O516        O  0.44979648  0.40019593  0.79356726    -0.78000
O517        O  0.35866983  0.36102940  0.76618912    -0.76200
O518        O  0.39055424  0.43314881  0.76808390    -1.12400
O519        O  0.32956729  0.43338595  0.77789990    -0.71600
C520        C  0.31698092  0.46040299  0.75559465     0.99200
C521        C  0.44564454  0.48879448  0.76302368     0.95600
Al522      Al  0.41900695  0.40810466  0.75224308     1.55600
O523        O  0.37498804  0.50168616  0.79820404    -0.76200
C524        C  0.37754464  0.33994281  0.75524350     0.99700
C525        C  0.38322074  0.44973027  0.69598954     0.94600
O526        O  0.38077683  0.47993929  0.71339185    -0.81500
O527        O  0.39098690  0.02876268  0.77911197    -0.81000
C528        C  0.32113615  0.12738347  0.67285769     0.98400
O529        O  0.32477568  0.13708965  0.70194140    -0.70100
O530        O  0.30736861  0.07132885  0.72285083    -0.73700
Al531      Al  0.34390880  0.10413938  0.74054053     1.49000
C532        C  0.30657427  0.03441423  0.72995774     0.93600
O533        O  0.36060727  0.00411609  0.68806992    -0.79900
O534        O  0.43325324  0.08234532  0.72762963    -0.73500
Al535      Al  0.37518720  0.02025497  0.73344855     1.90100
O536        O  0.38971901  0.05004236  0.67363576    -0.72500
O537        O  0.39112351  0.15105126  0.71649019    -0.72400
O538        O  0.34486827  0.10935965  0.66668467    -0.78000
O539        O  0.37773186  0.14165470  0.75988514    -0.76200
O540        O  0.36947738  0.07352742  0.72448184    -1.12400
O541        O  0.35624180  0.07688040  0.78214352    -0.71600
C542        C  0.37665563  0.04856106  0.79550287     0.99200
C543        C  0.37577105  0.01594799  0.66924131     0.95600
Al544      Al  0.38841885  0.09672553  0.69837120     1.55600
O545        O  0.33155728  0.01123156  0.73460836    -0.76200
C546        C  0.38633651  0.16537498  0.74155004     0.99700
C547        C  0.44187265  0.04527298  0.73671881     0.94600
O548        O  0.42025261  0.01898025  0.73596803    -0.81500
O549        O  0.12287752  0.02806812  0.96742102    -0.81000
C550        C  0.18999452  0.12710292  0.57280918     0.98400
O551        O  0.18652075  0.13630527  0.54368350    -0.70100
O552        O  0.20532560  0.06922635  0.52549389    -0.73700
Al553      Al  0.16876073  0.10267282  0.00594738     1.49000
C554        C  0.20682264  0.03236300  0.51861447     0.93600
O555        O  0.15132706  0.00324125  0.55881715    -0.79900
O556        O  0.07830952  0.08258692  0.51745336    -0.73500
Al557      Al  0.13776964  0.01952613  0.51324185     1.90100
O558        O  0.12245477  0.05120865  0.57209852    -0.72500
O559        O  0.11989228  0.15126319  0.52753251    -0.72400
O560        O  0.16629580  0.10968595  0.57894312    -0.78000
O561        O  0.13475032  0.14053114  0.98509527    -0.76200
O562        O  0.14280341  0.07293187  0.52162949    -1.12400
O563        O  0.15796747  0.07498460  0.96518602    -0.71600
C564        C  0.13774255  0.04746391  0.95151177     0.99200
C565        C  0.13615444  0.01653707  0.57734818     0.95600
Al566      Al  0.12304162  0.09711173  0.54676996     1.55600
O567        O  0.18199222  0.00954614  0.51320301    -0.76200
C568        C  0.12599365  0.16503704  0.50294564     0.99700
C569        C  0.07033951  0.04547281  0.50881252     0.94600
O570        O  0.09247195  0.01911224  0.50978724    -0.81500
O571        O  0.17506205  0.47503024  0.50319931    -0.81000
C572        C  0.06773208  0.38008703  0.92675952     0.98400
O573        O  0.09694981  0.37697562  0.92532846    -0.70100
O574        O  0.12291839  0.44557546  0.91593294    -0.73700
Al575      Al  0.13805737  0.40589839  0.94896467     1.49000
C576        C  0.12680598  0.48352732  0.91802237     0.93600
O577        O  0.08355587  0.49920014  0.97064882    -0.79900
O578        O  0.12189721  0.41213903  0.53672917    -0.73500
Al579      Al  0.12912609  0.48376425  0.98636830     1.90100
O580        O  0.06780333  0.44873691  0.99508909    -0.72500
O581        O  0.11332431  0.35270975  0.49409329    -0.72400
O582        O  0.06325540  0.39456131  0.95170336    -0.78000
O583        O  0.15572996  0.35978416  0.97747826    -0.76200
O584        O  0.12083055  0.43116176  0.97614159    -1.12400
O585        O  0.18160466  0.43333187  0.96628662    -0.71600
C586        C  0.19304940  0.46068439  0.98803948     0.99200
C587        C  0.06303889  0.48339838  0.98196283     0.95600
Al588      Al  0.09414141  0.40417925  0.99289672     1.55600
O589        O  0.13147832  0.50154752  0.94478240    -0.76200
C590        C  0.13850563  0.33805684  0.98955843     0.99700
C591        C  0.12806535  0.44759426  0.54853321     0.94600
O592        O  0.12902622  0.47781942  0.53053031    -0.81500
C593        C  0.13875644  0.27764923  0.52373087     0.24400
C594        C  0.14428307  0.29390211  0.99612265    -0.23700
C595        C  0.14444199  0.26744931  0.97082691     0.19300
C596        C  0.13734367  0.22582348  0.97234629     0.24400
C597        C  0.12980828  0.20988740  0.99924152    -0.23600
C598        C  0.13155739  0.23633531  0.52532710     0.19300
F599        F  0.12650775  0.22244921  0.55268895    -0.13600
F600        F  0.13865173  0.30256769  0.54864821    -0.15900
F601        F  0.13726815  0.20138815  0.94713743    -0.15900
F602        F  0.14896190  0.28245951  0.94353243    -0.13600
C603        C  0.25221018  0.13539839  0.58981951     0.24400
C604        C  0.22316042  0.13413079  0.59854011    -0.23700
C605        C  0.22699031  0.13640020  0.63183338     0.19300
C606        C  0.25880450  0.13779455  0.65567092     0.24400
C607        C  0.28785449  0.13457221  0.64703322    -0.23600
C608        C  0.28399085  0.13447425  0.61368416     0.19300
F609        F  0.31100171  0.13308417  0.60402439    -0.13600
F610        F  0.25012674  0.13573740  0.55800092    -0.15900
F611        F  0.26097961  0.14064467  0.68742975    -0.15900
F612        F  0.19994380  0.13707648  0.64143673    -0.13600
C613        C  0.03784614  0.37136631  0.86657101     0.24400
C614        C  0.03761225  0.36941532  0.89868544    -0.23700
C615        C  0.00686635  0.36351123  0.90350779     0.19300
C616        C  0.47688911  0.36459028  0.87709293     0.24400
C617        C  0.47695324  0.37135894  0.84524056    -0.23600
C618        C  0.00799740  0.37204634  0.84020271     0.19300
F619        F  0.00966869  0.37558284  0.80968977    -0.13600
F620        F  0.06675627  0.37591081  0.86060004    -0.15900
F621        F  0.44785483  0.36160720  0.88304212    -0.15900
F622        F  0.00561217  0.35863268  0.93406420    -0.13600
C623        C  0.38326705  0.27916054  0.72359870     0.24400
C624        C  0.37341853  0.29574829  0.74876568    -0.23700
C625        C  0.36839504  0.26930046  0.77203515     0.19300
C626        C  0.37399802  0.22707214  0.77066790     0.24400
C627        C  0.38482620  0.21044436  0.74591145    -0.23600
C628        C  0.38901783  0.23721478  0.72221373     0.19300
F629        F  0.39863218  0.22302766  0.69743057    -0.13600
F630        F  0.38842759  0.30400887  0.70074304    -0.15900
F631        F  0.36890047  0.20263867  0.79375483    -0.15900
F632        F  0.36009314  0.28455739  0.79728402    -0.13600
C633        C  0.23434521  0.49351941  0.76551565     0.24400
C634        C  0.22387016  0.52681928  0.74331456    -0.23700
C635        C  0.24403269  0.53739944  0.72505514     0.19300
C636        C  0.27322131  0.51485866  0.72814505     0.24400
C637        C  0.28363964  0.48100550  0.75007619    -0.23600
C638        C  0.26377279  0.47121412  0.76899462     0.19300
F639        F  0.27266556  0.43995213  0.79094496    -0.13600
F640        F  0.21571584  0.48211289  0.78381974    -0.15900
F641        F  0.29122513  0.52658390  0.70932669    -0.15900
F642        F  0.23467446  0.56837971  0.70286334    -0.13600
C643        C  0.46863157  0.53741402  0.73512155     0.24400
C644        C  0.47367576  0.51208337  0.76236068    -0.23700
C645        C  0.00510785  0.49509664  0.77867671     0.19300
C646        C  0.03078473  0.50082021  0.76639089     0.24400
C647        C  0.02517707  0.52369953  0.73758755    -0.23600
C648        C  0.99415729  0.54290791  0.72257536     0.19300
F649        F  0.98816808  0.56561438  0.69500666    -0.13600
F650        F  0.43793726  0.55285103  0.71852639    -0.15900
F651        F  0.06108361  0.48421639  0.78278562    -0.15900
F652        F  0.00993795  0.46985319  0.80476336    -0.13600
C653        C  0.15123809  0.50837391  0.84477158     0.24400
C654        C  0.12737601  0.53816838  0.82834390    -0.23700
C655        C  0.10543665  0.55335750  0.84393571     0.19300
C656        C  0.10618107  0.53725031  0.87413752     0.24400
C657        C  0.12852113  0.50557793  0.88904752    -0.23600
C658        C  0.15149183  0.49202040  0.87452715     0.19300
F659        F  0.17381537  0.46193179  0.88889550    -0.13600
F660        F  0.17369484  0.49377602  0.83157841    -0.15900
F661        F  0.08368466  0.55067448  0.88770603    -0.15900
F662        F  0.08203863  0.58221935  0.82929465    -0.13600
C663        C  0.10486826  0.44467670  0.59427923     0.24400
C664        C  0.13073679  0.45554456  0.58269953    -0.23700
C665        C  0.15589644  0.48077661  0.60173309     0.19300
C666        C  0.15428219  0.49716605  0.63070572     0.24400
C667        C  0.12674980  0.48980930  0.64090799    -0.23600
C668        C  0.10282695  0.46181535  0.62322994     0.19300
F669        F  0.07639047  0.45334487  0.63257698    -0.13600
F670        F  0.08006145  0.42038145  0.57611854    -0.15900
F671        F  0.17930643  0.52170083  0.64819758    -0.15900
F672        F  0.18143529  0.49103589  0.59147824    -0.13600
C673        C  0.11463240  0.76821770  0.77058706     0.24400
C674        C  0.12151863  0.79497559  0.74854571    -0.23700
C675        C  0.13274786  0.77858466  0.72415608     0.19300
C676        C  0.13857595  0.73667621  0.72274738     0.24400
C677        C  0.13259842  0.70961614  0.74527556    -0.23600
C678        C  0.12006843  0.72596266  0.76901264     0.19300
F679        F  0.11314340  0.70123626  0.79092759    -0.13600
F680        F  0.10459467  0.78311580  0.79488992    -0.15900
F681        F  0.15021926  0.72281673  0.69920584    -0.15900
F682        F  0.13943798  0.80363526  0.70226013    -0.13600
C683        C  0.15418533  0.03528251  0.87135693     0.24400
C684        C  0.13315474  0.00296000  0.85732642    -0.23700
C685        C  0.11124166  0.98837069  0.87246937     0.19300
C686        C  0.11121017  0.00463955  0.90203205     0.24400
C687        C  0.13360114  0.03555150  0.91744133    -0.23600
C688        C  0.15463073  0.05137479  0.90132151     0.19300
F689        F  0.17688812  0.08090074  0.91520284    -0.13600
F690        F  0.17572771  0.04944222  0.85712252    -0.15900
F691        F  0.09001741  0.98886444  0.91603219    -0.15900
F692        F  0.09014807  0.95759334  0.85879493    -0.13600
C693        C  0.15125769  0.94158775  0.64855393     0.24400
C694        C  0.12947894  0.95806081  0.66362936    -0.23700
C695        C  0.10726748  0.98929171  0.64776051     0.19300
C696        C  0.10847479  0.00625889  0.61890534     0.24400
C697        C  0.13251494  0.99291721  0.60521155    -0.23600
C698        C  0.15280695  0.95898969  0.61947216     0.19300
F699        F  0.17528437  0.94416662  0.60642339    -0.13600
F700        F  0.17283484  0.91094387  0.66326936    -0.15900
F701        F  0.08653176  0.03700655  0.60511019    -0.15900
F702        F  0.08526475  0.00494088  0.66113842    -0.13600
C703        C  0.48726609  0.99651945  0.76889645     0.24400
C704        C  0.47676035  0.02922717  0.74616438    -0.23700
C705        C  0.99707647  0.03970407  0.72808794     0.19300
C706        C  0.02624143  0.01711016  0.73143258     0.24400
C707        C  0.03639245  0.98329824  0.75340693    -0.23600
C708        C  0.01668075  0.97413112  0.77263213     0.19300
F709        F  0.02575710  0.94353609  0.79518071    -0.13600
F710        F  0.46862574  0.98574018  0.78736552    -0.15900
F711        F  0.04442007  0.02865026  0.71273906    -0.15900
F712        F  0.98780628  0.07050580  0.70573329    -0.13600
C713        C  0.24709658  0.04017050  0.72410203     0.24400
C714        C  0.27826332  0.02114429  0.73864442    -0.23700
C715        C  0.28390024  0.99626181  0.76643112     0.19300
C716        C  0.25830020  0.98909789  0.77852918     0.24400
C717        C  0.22695584  0.00682853  0.76316238    -0.23600
C718        C  0.22161679  0.03319751  0.73645272     0.19300
F719        F  0.19083464  0.04876544  0.72037349    -0.13600
F720        F  0.24102862  0.06439716  0.69730923    -0.15900
F721        F  0.26324573  0.96232727  0.80371323    -0.15900
F722        F  0.31425497  0.97938274  0.78220308    -0.13600
C723        C  0.47481323  0.63607716  0.62939352     0.24400
C724        C  0.47110301  0.63375866  0.59611538    -0.23700
C725        C  0.00015922  0.63550321  0.58747434     0.19300
C726        C  0.03191640  0.63511220  0.61144768     0.24400
C727        C  0.03567251  0.63506486  0.64479015    -0.23600
C728        C  0.00654384  0.63793976  0.65330148     0.19300
F729        F  0.00857538  0.64085192  0.68501815    -0.13600
F730        F  0.44772077  0.63619434  0.63893413    -0.15900
F731        F  0.05901379  0.63440091  0.60192209    -0.15900
F732        F  0.99809425  0.63567337  0.55566095    -0.13600
C733        C  0.40539656  0.46068833  0.61934220     0.24400
C734        C  0.38174693  0.49032917  0.60246459    -0.23700
C735        C  0.35535666  0.49991301  0.61399723     0.19300
C736        C  0.35462737  0.48400834  0.64333918     0.24400
C737        C  0.37966515  0.45729185  0.66164017    -0.23600
C738        C  0.40432980  0.44415485  0.64887115     0.19300
F739        F  0.42895711  0.41820511  0.66631408    -0.13600
F740        F  0.43068685  0.45000018  0.60865055    -0.15900
F741        F  0.33020825  0.49642746  0.65476513    -0.15900
F742        F  0.33074192  0.52645477  0.59763183    -0.13600
C743        C  0.35868753  0.50157167  0.90050799     0.24400
C744        C  0.37692786  0.53674745  0.91375961    -0.23700
C745        C  0.39399248  0.55687213  0.89542744     0.19300
C746        C  0.39425376  0.54080385  0.86562841     0.24400
C747        C  0.37792806  0.50423061  0.85394518    -0.23600
C748        C  0.35943875  0.48543788  0.87112823     0.19300
F749        F  0.34248895  0.45067049  0.85968193    -0.13600
F750        F  0.34133710  0.48132266  0.91663267    -0.15900
F751        F  0.41214709  0.55949643  0.84928915    -0.15900
F752        F  0.41168559  0.59107990  0.90689596    -0.13600
C753        C  0.24266838  0.47836773  0.47102914     0.24400
C754        C  0.22616863  0.48054458  0.99405627    -0.23700
C755        C  0.23889928  0.50775430  0.02061000     0.19300
C756        C  0.26654737  0.53229630  0.02358275     0.24400
C757        C  0.28310771  0.52975347  0.50078760    -0.23600
C758        C  0.27080941  0.50228898  0.47452285     0.19300
F759        F  0.28652221  0.49817382  0.45228409    -0.13600
F760        F  0.23149761  0.45338516  0.44484582    -0.15900
F761        F  0.27813329  0.55709236  0.04981793    -0.15900
F762        F  0.22485373  0.51039922  0.04425408    -0.13600
C763        C  0.47664940  0.49619349  0.97718934     0.24400
C764        C  0.48123528  0.51798904  0.50613291    -0.23700
C765        C  0.01238717  0.53427783  0.52331253     0.19300
C766        C  0.03881628  0.52811005  0.51207730     0.24400
C767        C  0.03443449  0.50527098  0.98382476    -0.23600
C768        C  0.00323731  0.48974401  0.96618833     0.19300
F769        F  0.99923859  0.46596649  0.93960222    -0.13600
F770        F  0.44635590  0.48197750  0.95919363    -0.15900
F771        F  0.06945101  0.54096941  0.53044944    -0.15900
F772        F  0.01735323  0.55519946  0.55142854    -0.13600
C773        C  0.25673853  0.86239978  0.84420121     0.24400
C774        C  0.22587894  0.86991260  0.84850802    -0.23700
C775        C  0.22538682  0.87433199  0.88038951     0.19300
C776        C  0.25511016  0.87512784  0.90694604     0.24400
C777        C  0.28631827  0.87198053  0.90232441    -0.23600
C778        C  0.28657184  0.86344930  0.87075138     0.19300
F779        F  0.31567935  0.85839771  0.86512161    -0.13600
F780        F  0.25819982  0.85583700  0.81390902    -0.15900
F781        F  0.25310018  0.88109082  0.93710244    -0.15900
F782        F  0.19632670  0.88129901  0.88575574    -0.13600
C783        C  0.38320705  0.73569896  0.52640237     0.24400
C784        C  0.37602338  0.71019211  0.99879067    -0.23700
C785        C  0.37808532  0.72689561  0.96959759     0.19300
C786        C  0.38608992  0.76817127  0.96784231     0.24400
C787        C  0.39229984  0.79359411  0.99518101    -0.23600
C788        C  0.39103646  0.77682467  0.52448585     0.19300
F789        F  0.39606251  0.80095931  0.55104081    -0.13600
F790        F  0.38322036  0.72083358  0.55557442    -0.15900
F791        F  0.38524870  0.78407909  0.93871935    -0.15900
F792        F  0.37159454  0.70354581  0.94245186    -0.13600
C793        C  0.99667775  0.97464055  0.47281451     0.24400
C794        C  0.47745930  0.98203900  0.99292512    -0.23700
C795        C  0.48760869  0.01450825  0.01582881     0.19300
C796        C  0.01600671  0.03771107  0.01889546     0.24400
C797        C  0.03572314  0.02925471  0.49966647    -0.23600
C798        C  0.02544130  0.99756404  0.47634754     0.19300
F799        F  0.04374824  0.98823773  0.45712762    -0.13600
F800        F  0.98781075  0.94517497  0.44967122    -0.15900
F801        F  0.02526327  0.06697240  0.04218798    -0.15900
F802        F  0.47020862  0.02408988  0.03583023    -0.13600
C803        C  0.25709819  0.99315620  0.46952369     0.24400
C804        C  0.28831438  0.00883699  0.98691131    -0.23700
C805        C  0.29289747  0.03120946  0.01546002     0.18500
C806        C  0.26679093  0.03625611  0.02737421     0.24400
C807        C  0.23576784  0.01924469  0.51066760    -0.23600
C808        C  0.23093497  0.99819322  0.48134493     0.19300
F809        F  0.20078188  0.98321572  0.46379004    -0.13600
F810        F  0.25281725  0.97021025  0.44246838    -0.15900
F811        F  0.27199000  0.05673518  0.05571432    -0.15900
F812        F  0.32349969  0.04458219  0.03343612    -0.13600
C813        C  0.40838271  0.99487870  0.63398619     0.24400
C814        C  0.37937310  0.99075772  0.64232646    -0.23700
C815        C  0.35359139  0.96650532  0.62266203     0.19300
C816        C  0.35574886  0.94945597  0.59382641     0.24400
C817        C  0.38361465  0.95666487  0.58434467    -0.23600
C818        C  0.41021994  0.97850004  0.60505659     0.19300
F819        F  0.43742061  0.98549065  0.59651892    -0.13600
F820        F  0.43461548  0.01634752  0.65326280    -0.15900
F821        F  0.32933564  0.92915932  0.57365845    -0.15900
F822        F  0.32533371  0.96214768  0.62984726    -0.13600
C823        C  0.36695666  0.04202414  0.87939696     0.24400
C824        C  0.38101983  0.00330071  0.88990435    -0.23700
C825        C  0.39698867  0.98214901  0.87115954     0.19300
C826        C  0.39746937  0.99821424  0.84165708     0.24400
C827        C  0.38149800  0.03581989  0.82970721    -0.23600
C828        C  0.36690906  0.05807776  0.84937334     0.19300
F829        F  0.35164424  0.09473775  0.83916902    -0.13600
F830        F  0.35169559  0.06321499  0.89723476    -0.15900
F831        F  0.41229023  0.97562027  0.82415309    -0.15900
F832        F  0.41192214  0.94523311  0.88125591    -0.13600
O833        O  0.92778883  0.97359674  0.00452052    -0.81000
C834        C  0.81743749  0.88242574  0.42961895     0.98400
O835        O  0.84635187  0.87755911  0.42761619    -0.70100
O836        O  0.87234127  0.94546584  0.41740690    -0.73700
Al837      Al  0.88837782  0.90600130  0.45018411     1.49000
C838        C  0.87847337  0.98291376  0.41926577     0.93600
O839        O  0.83689124  0.00120156  0.47277360    -0.79900
O840        O  0.87543311  0.91329353  0.03873263    -0.73500
Al841      Al  0.88221750  0.98435803  0.48805581     1.90100
O842        O  0.82134467  0.95206132  0.49870121    -0.72500
O843        O  0.86376004  0.85376988  0.99566385    -0.72400
O844        O  0.81418753  0.89803449  0.45475244    -0.78000
O845        O  0.90603566  0.85967918  0.47862200    -0.76200
O846        O  0.87266054  0.93202329  0.47799076    -1.12400
O847        O  0.93274627  0.93341022  0.46616107    -0.71600
C848        C  0.94484357  0.96070927  0.48798153     0.99200
C849        C  0.81667368  0.98643811  0.48501329     0.95600
Al850      Al  0.84619040  0.90627982  0.49547731     1.55600
O851        O  0.88467552  0.00133899  0.44611130    -0.76200
C852        C  0.88825581  0.83825860  0.49034684     0.99700
C853        C  0.88175960  0.94874085  0.05051504     0.94600
O854        O  0.88256982  0.97902665  0.03249347    -0.81500
O855        O  0.86738252  0.52924672  0.46438465    -0.81000
C856        C  0.93802117  0.62607818  0.07045043     0.98400
O857        O  0.93412416  0.63529621  0.04118769    -0.70100
O858        O  0.95124166  0.56890486  0.02046459    -0.73700
Al859      Al  0.91461419  0.60287626  0.50290861     1.49000
C860        C  0.95228719  0.53194879  0.01359903     0.93600
O861        O  0.89897325  0.50213845  0.05543027    -0.79900
O862        O  0.82584959  0.58257496  0.01780793    -0.73500
Al863      Al  0.88383517  0.51957799  0.01011656     1.90100
O864        O  0.87131484  0.54972549  0.07087836    -0.72500
O865        O  0.86746820  0.65104056  0.02738946    -0.72400
O866        O  0.91472906  0.60833708  0.07700180    -0.78000
O867        O  0.88044470  0.64129799  0.48376344    -0.76200
O868        O  0.88949682  0.57275168  0.01932028    -1.12400
O869        O  0.90213317  0.57622276  0.46148100    -0.71600
C870        C  0.88168274  0.54878678  0.44802287     0.99200
C871        C  0.88478354  0.51488632  0.07493648     0.95600
Al872      Al  0.87106343  0.59634120  0.04590188     1.55600
O873        O  0.92731927  0.50947877  0.00841451    -0.76200
C874        C  0.87247633  0.66531694  0.00238854     0.99700
C875        C  0.81750603  0.54571390  0.00884422     0.94600
O876        O  0.83911631  0.51932810  0.00838484    -0.81500
O877        O  0.58710268  0.97598949  0.24328143    -0.81000
C878        C  0.69588838  0.88018259  0.31984825     0.98400
O879        O  0.66649383  0.87565518  0.32036955    -0.70100
O880        O  0.63931782  0.94368401  0.33012430    -0.73700
Al881      Al  0.62492918  0.90533526  0.29674699     1.49000
C882        C  0.63503314  0.98172179  0.32834149     0.93600
O883        O  0.67796881  0.99975001  0.27620802    -0.79900
O884        O  0.64168430  0.91371599  0.20993734    -0.73500
Al885      Al  0.63279481  0.98436347  0.26030882     1.90100
O886        O  0.69482482  0.95031058  0.25141786    -0.72500
O887        O  0.65209445  0.85370485  0.25280865    -0.72400
O888        O  0.70054173  0.89574859  0.29530919    -0.78000
O889        O  0.60818586  0.86044216  0.26723403    -0.76200
O890        O  0.64208377  0.93163961  0.27024100    -1.12400
O891        O  0.58096827  0.93363597  0.27983294    -0.71600
C892        C  0.56940057  0.96212995  0.25867270     0.99200
C893        C  0.69884264  0.98458693  0.26479839     0.95600
Al894      Al  0.66969710  0.90539807  0.25382637     1.55600
O895        O  0.63015118  0.00070440  0.30183878    -0.76200
C896        C  0.62653253  0.83894583  0.25591720     0.99700
C897        C  0.63411643  0.94932732  0.19817553     0.94600
O898        O  0.63297101  0.97919717  0.21636975    -0.81500
O899        O  0.63793850  0.52951160  0.27817705    -0.81000
C900        C  0.56888767  0.62781226  0.17073821     0.98400
O901        O  0.57247411  0.63761316  0.19974763    -0.70100
O902        O  0.55435756  0.57131689  0.21924324    -0.73700
Al903      Al  0.59070083  0.60401899  0.23808632     1.49000
C904        C  0.55339568  0.53508226  0.22796018     0.93600
O905        O  0.60801641  0.50287859  0.18703724    -0.79900
O906        O  0.68080672  0.58088058  0.22575453    -0.73500
Al907      Al  0.62228345  0.51997092  0.23237369     1.90100
O908        O  0.63637538  0.54929206  0.17202520    -0.72500
O909        O  0.63917531  0.65043846  0.21547755    -0.72400
O910        O  0.59256930  0.60939509  0.16483820    -0.78000
O911        O  0.62457002  0.64092240  0.25822911    -0.76200
O912        O  0.61671105  0.57318922  0.22276246    -1.12400
O913        O  0.60191014  0.57681302  0.27955769    -0.71600
C914        C  0.62280612  0.54941348  0.29384057     0.99200
C915        C  0.62288178  0.51488965  0.16793092     0.95600
Al916      Al  0.63591165  0.59607556  0.19677648     1.55600
O917        O  0.57837747  0.51155976  0.23360436    -0.76200
C918        C  0.63390993  0.66462501  0.24042056     0.99700
C919        C  0.68916248  0.54371806  0.23480557     0.94600
O920        O  0.66735924  0.51807142  0.23486057    -0.81500
O921        O  0.83410157  0.47363905  0.23940867    -0.81000
C922        C  0.94602888  0.38313889  0.31791480     0.98400
O923        O  0.91686866  0.37785004  0.31895407    -0.70100
O924        O  0.88828855  0.44588267  0.32787441    -0.73700
Al925      Al  0.87441236  0.40652430  0.29514973     1.49000
C926        C  0.88125435  0.48338121  0.32525259     0.93600
O927        O  0.92383668  0.50306908  0.27362252    -0.79900
O928        O  0.89112150  0.41457993  0.20842809    -0.73500
Al929      Al  0.87930736  0.48520519  0.25710150     1.90100
O930        O  0.94276302  0.45444597  0.24965080    -0.72500
O931        O  0.90273250  0.35541998  0.25182072    -0.72400
O932        O  0.94978203  0.40019623  0.29356139    -0.78000
O933        O  0.85865612  0.36103527  0.26623958    -0.76200
O934        O  0.89053845  0.43315011  0.26809607    -1.12400
O935        O  0.82956897  0.43340839  0.27795108    -0.71600
C936        C  0.81697686  0.46041642  0.25563999     0.99200
C937        C  0.94561463  0.48878652  0.26299204     0.95600
Al938      Al  0.91897611  0.40809374  0.25224310     1.55600
O939        O  0.87498636  0.50170438  0.29820750    -0.76200
C940        C  0.87751651  0.33994349  0.25527874     0.99700
C941        C  0.88317045  0.44970261  0.19598697     0.94600
O942        O  0.88073554  0.47991805  0.21338670    -0.81500
O943        O  0.89099263  0.02877465  0.27909420    -0.81000
C944        C  0.82114493  0.12740534  0.17283687     0.98400
O945        O  0.82478241  0.13710749  0.20192116    -0.70100
O946        O  0.80737215  0.07134235  0.22282216    -0.73700
Al947      Al  0.84391242  0.10415127  0.24051937     1.49000
C948        C  0.80657987  0.03443206  0.22994246     0.93600
O949        O  0.86060809  0.00413572  0.18805103    -0.79900
O950        O  0.93326126  0.08235667  0.22760942    -0.73500
Al951      Al  0.87519197  0.02026979  0.23342880     1.90100
O952        O  0.88972351  0.05005645  0.17361455    -0.72500
O953        O  0.89113051  0.15107133  0.21647722    -0.72400
O954        O  0.84487727  0.10937999  0.16666575    -0.78000
O955        O  0.87773691  0.14166080  0.25986965    -0.76200
O956        O  0.86948340  0.07354213  0.22446246    -1.12400
O957        O  0.85623991  0.07688523  0.28212153    -0.71600
C958        C  0.87665264  0.04856464  0.29548213     0.99200
C959        C  0.87577193  0.01596351  0.16922171     0.95600
Al960      Al  0.88842630  0.09674203  0.19835303     1.55600
O961        O  0.83156232  0.01124878  0.23459059    -0.76200
C962        C  0.88633704  0.16538919  0.24153671     0.99700
C963        C  0.94187947  0.04528241  0.23669404     0.94600
O964        O  0.92025841  0.01899164  0.23594577    -0.81500
O965        O  0.62288037  0.02805249  0.46744314    -0.81000
C966        C  0.69000494  0.12712564  0.07278135     0.98400
O967        O  0.68653160  0.13632170  0.04365446    -0.70100
O968        O  0.70532582  0.06924898  0.02544774    -0.73700
Al969      Al  0.66876327  0.10265040  0.50597843     1.49000
C970        C  0.70682195  0.03238050  0.01858270     0.93600
O971        O  0.65133534  0.00326633  0.05880241    -0.79900
O972        O  0.57831207  0.08260535  0.01743860    -0.73500
Al973      Al  0.63777243  0.01954647  0.01322247     1.90100
O974        O  0.62246855  0.05124220  0.07207914    -0.72500
O975        O  0.61989454  0.15128222  0.02751380    -0.72400
O976        O  0.66630517  0.10971429  0.07891767    -0.78000
O977        O  0.63475385  0.14050885  0.48511601    -0.76200
O978        O  0.64280680  0.07295369  0.02160623    -1.12400
O979        O  0.65798523  0.07495440  0.46521874    -0.71600
C980        C  0.63776070  0.04743391  0.45154146     0.99200
C981        C  0.63617136  0.01657469  0.07733768     0.95600
Al982      Al  0.62304826  0.09713563  0.04674911     1.55600
O983        O  0.68199203  0.00956510  0.01317909    -0.76200
C984        C  0.62599657  0.16505795  0.00292912     0.99700
C985        C  0.57034289  0.04548980  0.00880015     0.94600
O986        O  0.59247645  0.01913172  0.00977342    -0.81500
O987        O  0.67506965  0.47500554  0.00320905    -0.81000
C988        C  0.56773895  0.38008966  0.42676284     0.98400
O989        O  0.59695577  0.37698126  0.42532908    -0.70100
O990        O  0.62293406  0.44556966  0.41593446    -0.73700
Al991      Al  0.63806446  0.40589532  0.44896905     1.49000
C992        C  0.62680790  0.48352364  0.41801604     0.93600
O993        O  0.58354354  0.49918728  0.47063133    -0.79900
O994        O  0.62188948  0.41212787  0.03672580    -0.73500
Al995      Al  0.62911670  0.48376930  0.48635688     1.90100
O996        O  0.56780263  0.44873378  0.49508953    -0.72500
O997        O  0.61331761  0.35271458  0.99408284    -0.72400
O998        O  0.56326295  0.39455140  0.45171090    -0.78000
O999        O  0.65572978  0.35977243  0.47747832    -0.76200
O1000       O  0.62083341  0.43116097  0.47614154    -1.12400
O1001       O  0.68161274  0.43332880  0.46629941    -0.71600
C1002       C  0.69304898  0.46069698  0.48804169     0.99200
C1003       C  0.56302872  0.48338680  0.48194843     0.95600
Al1004     Al  0.59414754  0.40417778  0.49290213     1.55600
O1005       O  0.63146682  0.50154964  0.44477079    -0.76200
C1006       C  0.63850401  0.33804507  0.48955716     0.99700
C1007       C  0.62806430  0.44757812  0.04853756     0.94600
O1008       O  0.62903490  0.47780678  0.03054188    -0.81500
C1009       C  0.63871308  0.27766909  0.02371968     0.24400
C1010       C  0.64427006  0.29388407  0.49610647    -0.23700
C1011       C  0.64436077  0.26743384  0.47078599     0.19300
C1012       C  0.63726377  0.22580823  0.47231722     0.24400
C1013       C  0.62979686  0.20986838  0.49924888    -0.23600
C1014       C  0.63150889  0.23635640  0.02530231     0.19300
F1015       F  0.62638990  0.22247579  0.05263196    -0.13600
F1016       F  0.63855198  0.30258945  0.04861779    -0.15900
F1017       F  0.63711897  0.20137673  0.44708418    -0.15900
F1018       F  0.64881220  0.28244780  0.44346036    -0.13600
C1019       C  0.75222326  0.13540110  0.08979311     0.24400
C1020       C  0.72317180  0.13415496  0.09851188    -0.23700
C1021       C  0.72700031  0.13644958  0.13180392     0.19300
C1022       C  0.75881430  0.13784554  0.15564261     0.24400
C1023       C  0.78786528  0.13459939  0.14700859    -0.23600
C1024       C  0.78400323  0.13447876  0.11365963     0.19300
F1025       F  0.81101485  0.13306625  0.10400170    -0.13600
F1026       F  0.75014183  0.13571657  0.05797499    -0.15900
F1027       F  0.76098803  0.14072266  0.18739954    -0.15900
F1028       F  0.69995246  0.13715065  0.14140482    -0.13600
C1029       C  0.53785025  0.37141533  0.36657195     0.24400
C1030       C  0.53761890  0.36943169  0.39868602    -0.23700
C1031       C  0.50687501  0.36351323  0.40350837     0.19300
C1032       C  0.97689698  0.36459954  0.37709536     0.24400
C1033       C  0.97695773  0.37139010  0.34524420    -0.23600
C1034       C  0.50800082  0.37210239  0.34020504     0.19300
F1035       F  0.50967085  0.37566837  0.30969356    -0.13600
F1036       F  0.56675832  0.37598575  0.36060163    -0.15900
F1037       F  0.94786468  0.36159835  0.38304616    -0.15900
F1038       F  0.50562345  0.35861295  0.43406387    -0.13600
C1039       C  0.88314434  0.27918348  0.22357077     0.24400
C1040       C  0.87337777  0.29575207  0.24879432    -0.23700
C1041       C  0.86844470  0.26929011  0.27210155     0.19300
C1042       C  0.87406021  0.22706681  0.27071576     0.24400
C1043       C  0.88480962  0.21045783  0.24590167    -0.23600
C1044       C  0.88890359  0.23724179  0.22216408     0.19300
F1045       F  0.89842677  0.22307220  0.19731952    -0.13600
F1046       F  0.88821942  0.30404897  0.20068047    -0.15900
F1047       F  0.86905922  0.20262012  0.29384517    -0.15900
F1048       F  0.86022568  0.28453106  0.29740331    -0.13600
C1049       C  0.73430836  0.49347748  0.26551463     0.24400
C1050       C  0.72386172  0.52682239  0.24335333    -0.23700
C1051       C  0.74406899  0.53747473  0.22515912     0.19300
C1052       C  0.77326673  0.51495077  0.22826062     0.24400
C1053       C  0.78364633  0.48103731  0.25013530    -0.23600
C1054       C  0.76374350  0.47118496  0.26900307     0.19300
F1055       F  0.77260409  0.43987018  0.29090642    -0.13600
F1056       F  0.71564337  0.48201196  0.28376764    -0.15900
F1057       F  0.79131996  0.52675715  0.20951212    -0.15900
F1058       F  0.73474853  0.56851336  0.20301786    -0.13600
C1059       C  0.96860194  0.53739233  0.23507475     0.24400
C1060       C  0.97364443  0.51206937  0.26231810    -0.23700
C1061       C  0.50507779  0.49509502  0.27864592     0.19300
C1062       C  0.53076158  0.50082935  0.26637221     0.24400
C1063       C  0.52515921  0.52370677  0.23756909    -0.23600
C1064       C  0.49413645  0.54290116  0.22254282     0.19300
F1065       F  0.48815494  0.56561005  0.19497622    -0.13600
F1066       F  0.93790569  0.55281419  0.21846707    -0.15900
F1067       F  0.56106323  0.48424199  0.28278033    -0.15900
F1068       F  0.50990567  0.46985918  0.30473650    -0.13600
C1069       C  0.65121396  0.50833794  0.34474402     0.24400
C1070       C  0.62738031  0.53817481  0.32833914    -0.23700
C1071       C  0.60547111  0.55339792  0.34395263     0.19300
C1072       C  0.60621450  0.53728449  0.37415290     0.24400
C1073       C  0.62852226  0.50557058  0.38903840    -0.23600
C1074       C  0.65146621  0.49197924  0.37449699     0.19300
F1075       F  0.67376455  0.46185631  0.38884427    -0.13600
F1076       F  0.67364305  0.49370280  0.33153054    -0.15900
F1077       F  0.58374708  0.55074698  0.38774388    -0.15900
F1078       F  0.58210371  0.58230314  0.32933510    -0.13600
C1079       C  0.60483861  0.44468626  0.09426289     0.24400
C1080       C  0.63072916  0.45551819  0.08270366    -0.23700
C1081       C  0.65591020  0.48070701  0.10175939     0.19300
C1082       C  0.65429634  0.49709334  0.13073391     0.24400
C1083       C  0.62674379  0.48977875  0.14091375    -0.23600
C1084       C  0.60279805  0.46182304  0.12321434     0.19300
F1085       F  0.57634156  0.45339229  0.13254054    -0.13600
F1086       F  0.58001228  0.42043126  0.07608139    -0.15900
F1087       F  0.67934067  0.52158600  0.14824984    -0.15900
F1088       F  0.68147061  0.49092760  0.09152487    -0.13600
C1089       C  0.61457652  0.76824439  0.27049408     0.24400
C1090       C  0.62151732  0.79499877  0.24848293    -0.23700
C1091       C  0.63277729  0.77860011  0.22411581     0.19300
C1092       C  0.63859098  0.73668662  0.22270879     0.24400
C1093       C  0.63257466  0.70963228  0.24521948    -0.23600
C1094       C  0.62000224  0.72598696  0.26892360     0.19300
F1095       F  0.61302214  0.70126584  0.29080900    -0.13600
F1096       F  0.60449397  0.78314691  0.29476690    -0.15900
F1097       F  0.65026227  0.72281685  0.19918943    -0.15900
F1098       F  0.63950931  0.80364572  0.20224124    -0.13600
C1099       C  0.65423504  0.03521877  0.37140415     0.24400
C1100       C  0.63319444  0.00290767  0.35736596    -0.23700
C1101       C  0.61128033  0.98831914  0.37250786     0.19300
C1102       C  0.61124714  0.00458931  0.40206944     0.24400
C1103       C  0.63363660  0.03550331  0.41747876    -0.23600
C1104       C  0.65467910  0.05131180  0.40136795     0.19300
F1105       F  0.67694614  0.08082498  0.41525675    -0.13600
F1106       F  0.67578638  0.04936798  0.35717650    -0.15900
F1107       F  0.59005212  0.98881504  0.41606728    -0.15900
F1108       F  0.59018357  0.95754552  0.35883109    -0.13600
C1109       C  0.65127173  0.94163760  0.14855336     0.24400
C1110       C  0.62952749  0.95814959  0.16365354    -0.23700
C1111       C  0.60734640  0.98941897  0.14780809     0.19300
C1112       C  0.60854548  0.00637481  0.11894742     0.24400
C1113       C  0.63254695  0.99298160  0.10522038    -0.23600
C1114       C  0.65281272  0.95902733  0.11946415     0.19300
F1115       F  0.67525429  0.94415971  0.10638783    -0.13600
F1116       F  0.67282189  0.91095965  0.16324775    -0.15900
F1117       F  0.58663078  0.03715997  0.10517931    -0.15900
F1118       F  0.58537844  0.00511202  0.16121075    -0.13600
C1119       C  0.98728185  0.99654168  0.26887838     0.24400
C1120       C  0.97676668  0.02923324  0.24613233    -0.23700
C1121       C  0.49707116  0.03968799  0.22803783     0.19300
C1122       C  0.52623769  0.01709432  0.23138550     0.24400
C1123       C  0.53640399  0.98330684  0.25338264    -0.23600
C1124       C  0.51669935  0.97415596  0.27261871     0.19300
F1125       F  0.52578869  0.94358398  0.29518682    -0.13600
F1126       F  0.96864968  0.98577840  0.28735951    -0.15900
F1127       F  0.54440200  0.02860815  0.21267103    -0.15900
F1128       F  0.48778772  0.07046699  0.20566370    -0.13600
C1129       C  0.74712171  0.04024424  0.22416610     0.24400
C1130       C  0.77827920  0.02117079  0.23865313    -0.23700
C1131       C  0.78392641  0.99623567  0.26641344     0.19300
C1132       C  0.75834467  0.98906553  0.27853542     0.24400
C1133       C  0.72700662  0.00683727  0.26321768    -0.23600
C1134       C  0.72166056  0.03326379  0.23654144     0.19300
F1135       F  0.69088393  0.04888158  0.22051168    -0.13600
F1136       F  0.74104171  0.06452518  0.19740149    -0.15900
F1137       F  0.76329722  0.96224651  0.30368958    -0.15900
F1138       F  0.81427316  0.97930549  0.28213574    -0.13600
C1139       C  0.97481616  0.63607003  0.12937719     0.24400
C1140       C  0.97110595  0.63372708  0.09610066    -0.23700
C1141       C  0.50016161  0.63545099  0.08745723     0.19300
C1142       C  0.53191847  0.63506712  0.11142951     0.24400
C1143       C  0.53567446  0.63504310  0.14477172    -0.23600
C1144       C  0.50654680  0.63793526  0.15328346     0.19300
F1145       F  0.50857891  0.64086527  0.18499931    -0.13600
F1146       F  0.94772361  0.63620827  0.13891780    -0.15900
F1147       F  0.55901541  0.63433744  0.10190324    -0.15900
F1148       F  0.49809641  0.63559138  0.05564366    -0.13600
C1149       C  0.90535016  0.46063900  0.11934151     0.24400
C1150       C  0.88172128  0.49030637  0.10247206    -0.23700
C1151       C  0.85533332  0.49990792  0.11400392     0.19300
C1152       C  0.85458926  0.48399440  0.14333843     0.24400
C1153       C  0.87961186  0.45725613  0.16163511    -0.23600
C1154       C  0.90426978  0.44409981  0.14886392     0.19300
F1155       F  0.92887975  0.41812412  0.16629985    -0.13600
F1156       F  0.93063469  0.44992754  0.10864871    -0.15900
F1157       F  0.83017263  0.49642758  0.15476310    -0.15900
F1158       F  0.83073522  0.52647364  0.09764557    -0.13600
C1159       C  0.85866289  0.50165908  0.40049061     0.24400
C1160       C  0.87692264  0.53681810  0.41375190    -0.23700
C1161       C  0.89401490  0.55691766  0.39543368     0.19300
C1162       C  0.89428496  0.54083753  0.36564091     0.24400
C1163       C  0.87793994  0.50427790  0.35395044    -0.23600
C1164       C  0.85942388  0.48551242  0.37111824     0.19300
F1165       F  0.84245713  0.45075854  0.35966429    -0.13600
F1166       F  0.84128209  0.48143837  0.41659913    -0.15900
F1167       F  0.91220439  0.55950357  0.34931580    -0.15900
F1168       F  0.91172722  0.59110945  0.40691112    -0.13600
C1169       C  0.74266751  0.47835091  0.97102408     0.24400
C1170       C  0.72616782  0.48056077  0.49405989    -0.23700
C1171       C  0.73889438  0.50777577  0.52061109     0.19300
C1172       C  0.76654220  0.53231978  0.52358470     0.24400
C1173       C  0.78311004  0.52973087  0.00078343    -0.23600
C1174       C  0.77080901  0.50227013  0.97451706     0.19300
F1175       F  0.78652026  0.49815575  0.95227692    -0.13600
F1176       F  0.73149724  0.45336627  0.94484228    -0.15900
F1177       F  0.77812511  0.55711858  0.54981869    -0.15900
F1178       F  0.72484425  0.51042490  0.54425148    -0.13600
C1179       C  0.97663861  0.49618185  0.47718863     0.24400
C1180       C  0.98124560  0.51793702  0.00616179    -0.23700
C1181       C  0.51240021  0.53419536  0.02337145     0.19300
C1182       C  0.53883332  0.52805832  0.01213683     0.24400
C1183       C  0.53441788  0.50525747  0.48379753    -0.23600
C1184       C  0.50322417  0.48969732  0.46619019     0.19300
F1185       F  0.49922686  0.46585908  0.43963674    -0.13600
F1186       F  0.94634808  0.48193266  0.45921859    -0.15900
F1187       F  0.56947071  0.54088018  0.03053590    -0.15900
F1188       F  0.51736256  0.55506062  0.05151240    -0.13600
C1189       C  0.75674241  0.86238997  0.34420333     0.24400
C1190       C  0.72587852  0.86989168  0.34850432    -0.23700
C1191       C  0.72538042  0.87430966  0.38038401     0.19300
C1192       C  0.75510131  0.87511488  0.40694402     0.24400
C1193       C  0.78631227  0.87197856  0.40232732    -0.23600
C1194       C  0.78657253  0.86344944  0.37075640     0.19300
F1195       F  0.81568350  0.85841322  0.36513070    -0.13600
F1196       F  0.75821105  0.85583277  0.31391319    -0.15900
F1197       F  0.75308624  0.88107656  0.43709856    -0.15900
F1198       F  0.69631648  0.88126819  0.38574469    -0.13600
C1199       C  0.88317410  0.73566973  0.02637102     0.24400
C1200       C  0.87600375  0.71023320  0.49881108    -0.23700
C1201       C  0.87801151  0.72694387  0.46960004     0.19300
C1202       C  0.88602132  0.76821486  0.46784019     0.24400
C1203       C  0.89228761  0.79362618  0.49519124    -0.23600
C1204       C  0.89100201  0.77679686  0.02445998     0.19300
F1205       F  0.89597921  0.80093816  0.05100401    -0.13600
F1206       F  0.88313477  0.72081633  0.05552871    -0.15900
F1207       F  0.88512834  0.78413243  0.43870408    -0.15900
F1208       F  0.87146093  0.70360554  0.44244236    -0.13600
C1209       C  0.49668940  0.97463928  0.97281030     0.24400
C1210       C  0.97744932  0.98204281  0.49293053    -0.23700
C1211       C  0.98760564  0.01450351  0.51584070     0.19300
C1212       C  0.51600596  0.03770069  0.51890874     0.24400
C1213       C  0.53572692  0.02926588  0.99965575    -0.23600
C1214       C  0.52544915  0.99757015  0.97634034     0.19300
F1215       F  0.54375734  0.98824498  0.95712143    -0.13600
F1216       F  0.48782863  0.94516750  0.94967181    -0.15900
F1217       F  0.52526787  0.06695693  0.54220501    -0.15900
F1218       F  0.97021065  0.02408127  0.53584756    -0.13600
C1219       C  0.75711675  0.99315691  0.96951797     0.24400
C1220       C  0.78829302  0.00885822  0.48689846    -0.23700
C1221       C  0.79288059  0.03124403  0.51544161     0.18500
C1222       C  0.76678379  0.03627788  0.52737138     0.24400
C1223       C  0.73577096  0.01924746  0.01065007    -0.23600
C1224       C  0.73094369  0.99820763  0.98132356     0.19300
F1225       F  0.70078636  0.98325799  0.96374935    -0.13600
F1226       F  0.75283936  0.97022446  0.94245646    -0.15900
F1227       F  0.77198967  0.05676844  0.55570756    -0.15900
F1228       F  0.82348114  0.04463906  0.53340045    -0.13600
C1229       C  0.90839072  0.99485691  0.13398327     0.24400
C1230       C  0.87937257  0.99076349  0.14231187    -0.23700
C1231       C  0.85358460  0.96652159  0.12264446     0.19300
C1232       C  0.85574710  0.94945256  0.09381742     0.24400
C1233       C  0.88362509  0.95662952  0.08434839    -0.23600
C1234       C  0.91023434  0.97845613  0.10506317     0.19300
F1235       F  0.93744416  0.98542113  0.09653466    -0.13600
F1236       F  0.93462619  0.01631968  0.15326160    -0.15900
F1237       F  0.82932814  0.92917099  0.07364343    -0.15900
F1238       F  0.82531703  0.96219495  0.12981703    -0.13600
C1239       C  0.86693905  0.04201829  0.37937212     0.24400
C1240       C  0.88099744  0.00329263  0.38988005    -0.23700
C1241       C  0.89695836  0.98213397  0.37113069     0.19300
C1242       C  0.89744277  0.99819985  0.34162878     0.24400
C1243       C  0.88148288  0.03581301  0.32968286    -0.23600
C1244       C  0.86689435  0.05807164  0.34934899     0.19300
F1245       F  0.85163428  0.09473441  0.33914597    -0.13600
F1246       F  0.85168076  0.06321348  0.39721007    -0.15900
F1247       F  0.91225746  0.97560092  0.32412204    -0.15900
F1248       F  0.91188326  0.94521263  0.38122319    -0.13600
O1249       O  0.92776749  0.97363243  0.50450774    -0.81000
C1250       C  0.81744765  0.88241763  0.92961451     0.98400
O1251       O  0.84635980  0.87755375  0.92760634    -0.70100
O1252       O  0.87234872  0.94546804  0.91741323    -0.73700
Al1253     Al  0.88838800  0.90598919  0.95017848     1.49000
C1254       C  0.87849021  0.98291350  0.91928264     0.93600
O1255       O  0.83691475  0.00118195  0.97279103    -0.79900
O1256       O  0.87541815  0.91332924  0.53872946    -0.73500
Al1257     Al  0.88223925  0.98433218  0.98807065     1.90100
O1258       O  0.82136087  0.95203400  0.99870663    -0.72500
O1259       O  0.86374396  0.85379612  0.49567147    -0.72400
O1260       O  0.81420276  0.89801597  0.95475339    -0.78000
O1261       O  0.90604421  0.85965047  0.97860243    -0.76200
O1262       O  0.87267679  0.93200054  0.97799475    -1.12400
O1263       O  0.93275951  0.93339761  0.96615735    -0.71600
C1264       C  0.94485945  0.96069087  0.98798314     0.99200
C1265       C  0.81669412  0.98641527  0.98502552     0.95600
Al1266     Al  0.84620618  0.90625266  0.99547790     1.55600
O1267       O  0.88470016  0.00132745  0.94613296    -0.76200
C1268       C  0.88826659  0.83822898  0.99033050     0.99700
C1269       C  0.88174396  0.94877798  0.55050883     0.94600
O1270       O  0.88255050  0.97906241  0.53248334    -0.81500
O1271       O  0.86739457  0.52918040  0.96439603    -0.81000
C1272       C  0.93801848  0.62611205  0.57046068     0.98400
O1273       O  0.93412160  0.63533741  0.54119881    -0.70100
O1274       O  0.95123691  0.56895726  0.52045214    -0.73700
Al1275     Al  0.91462171  0.60282211  0.00290657     1.49000
C1276       C  0.95227919  0.53200403  0.51357540     0.93600
O1277       O  0.89897839  0.50217295  0.55541283    -0.79900
O1278       O  0.82584421  0.58260442  0.51781561    -0.73500
Al1279     Al  0.88383066  0.51962614  0.51010297     1.90100
O1280       O  0.87132002  0.54974787  0.57087511    -0.72500
O1281       O  0.86745927  0.65107584  0.52740693    -0.72400
O1282       O  0.91472628  0.60836604  0.57700812    -0.78000
O1283       O  0.88045575  0.64124632  0.98374944    -0.76200
O1284       O  0.88949242  0.57279593  0.51931899    -1.12400
O1285       O  0.90214444  0.57615380  0.96148567    -0.71600
C1286       C  0.88169356  0.54871672  0.94803137     0.99200
C1287       C  0.88479455  0.51491263  0.57492620     0.95600
Al1288     Al  0.87106032  0.59637131  0.54590803     1.55600
O1289       O  0.92731064  0.50953546  0.50839089    -0.76200
C1290       C  0.87246304  0.66535938  0.50240648     0.99700
C1291       C  0.81750242  0.54574421  0.50884674     0.94600
O1292       O  0.83911423  0.51936514  0.50837923    -0.81500
O1293       O  0.58706314  0.97592996  0.74325899    -0.81000
C1294       C  0.69588454  0.88020100  0.81985639     0.98400
O1295       O  0.66649416  0.87567712  0.82038874    -0.70100
O1296       O  0.63932279  0.94372247  0.83012265    -0.73700
Al1297     Al  0.62492476  0.90534363  0.79676809     1.49000
C1298       C  0.63500843  0.98175591  0.82831492     0.93600
O1299       O  0.67791901  0.99975061  0.77615596    -0.79900
O1300       O  0.64164877  0.91365927  0.70993424    -0.73500
Al1301     Al  0.63275023  0.98433965  0.76027405     1.90100
O1302       O  0.69478571  0.95029198  0.75138989    -0.72500
O1303       O  0.65207895  0.85368556  0.75283918    -0.72400
O1304       O  0.70052862  0.89575773  0.79530949    -0.78000
O1305       O  0.60817961  0.86042574  0.76728169    -0.76200
O1306       O  0.64206006  0.93162692  0.77023638    -1.12400
O1307       O  0.58095933  0.93363429  0.77986000    -0.71600
C1308       C  0.56937880  0.96210514  0.75868164     0.99200
C1309       C  0.69879499  0.98457994  0.76475189     0.95600
Al1310     Al  0.66967187  0.90537716  0.75382591     1.55600
O1311       O  0.63010587  0.00071422  0.80179810    -0.76200
C1312       C  0.62652531  0.83892544  0.75596581     0.99700
C1313       C  0.63406977  0.94926087  0.69815500     0.94600
O1314       O  0.63291954  0.97914322  0.71633527    -0.81500
O1315       O  0.63795561  0.52951204  0.77818890    -0.81000
C1316       C  0.56888737  0.62782974  0.67075578     0.98400
O1317       O  0.57247509  0.63761820  0.69976724    -0.70100
O1318       O  0.55436487  0.57129348  0.71923082    -0.73700
Al1319     Al  0.59069929  0.60400382  0.73809361     1.49000
C1320       C  0.55340784  0.53506472  0.72796378     0.93600
O1321       O  0.60803512  0.50287797  0.68704496    -0.79900
O1322       O  0.68081584  0.58088326  0.72574719    -0.73500
Al1323     Al  0.62230030  0.51996890  0.73238240     1.90100
O1324       O  0.63636641  0.54931780  0.67202288    -0.72500
O1325       O  0.63918641  0.65043709  0.71551243    -0.72400
O1326       O  0.59256960  0.60941928  0.66485307    -0.78000
O1327       O  0.62456190  0.64090672  0.75825286    -0.76200
O1328       O  0.61671967  0.57318824  0.72277154    -1.12400
O1329       O  0.60190111  0.57678540  0.77955663    -0.71600
C1330       C  0.62280807  0.54940087  0.79384591     0.99200
C1331       C  0.62288656  0.51490735  0.66793128     0.95600
Al1332     Al  0.63591452  0.59608811  0.69678660     1.55600
O1333       O  0.57839397  0.51154696  0.73361596    -0.76200
C1334       C  0.63391889  0.66461220  0.74045852     0.99700
C1335       C  0.68917422  0.54371988  0.73479235     0.94600
O1336       O  0.66737510  0.51807590  0.73486388    -0.81500
O1337       O  0.83411924  0.47365302  0.73938604    -0.81000
C1338       C  0.94603073  0.38312146  0.81790830     0.98400
O1339       O  0.91686498  0.37782811  0.81893239    -0.70100
O1340       O  0.88826793  0.44584736  0.82785173    -0.73700
Al1341     Al  0.87441070  0.40650522  0.79511510     1.49000
C1342       C  0.88124097  0.48334757  0.82524108     0.93600
O1343       O  0.92385835  0.50306928  0.77364630    -0.79900
O1344       O  0.89117053  0.41460434  0.70842444    -0.73500
Al1345     Al  0.87932785  0.48520868  0.75710115     1.90100
O1346       O  0.94279714  0.45446051  0.74967329    -0.72500
O1347       O  0.90276539  0.35542740  0.75180223    -0.72400
O1348       O  0.94979648  0.40019596  0.79356726    -0.78000
O1349       O  0.85866984  0.36102941  0.76618912    -0.76200
O1350       O  0.89055424  0.43314883  0.76808389    -1.12400
O1351       O  0.82956729  0.43338596  0.77789989    -0.71600
C1352       C  0.81698092  0.46040300  0.75559464     0.99200
C1353       C  0.94564455  0.48879449  0.76302370     0.95600
Al1354     Al  0.91900695  0.40810468  0.75224308     1.55600
O1355       O  0.87498804  0.50168618  0.79820404    -0.76200
C1356       C  0.87754466  0.33994281  0.75524350     0.99700
C1357       C  0.88322074  0.44973029  0.69598954     0.94600
O1358       O  0.88077684  0.47993931  0.71339185    -0.81500
O1359       O  0.89098692  0.02876269  0.77911199    -0.81000
C1360       C  0.82113614  0.12738345  0.67285770     0.98400
O1361       O  0.82477567  0.13708963  0.70194141    -0.70100
O1362       O  0.80736861  0.07132883  0.72285086    -0.73700
Al1363     Al  0.84390880  0.10413937  0.74054054     1.49000
C1364       C  0.80657428  0.03441422  0.72995778     0.93600
O1365       O  0.86060725  0.00411608  0.68806994    -0.79900
O1366       O  0.93325323  0.08234532  0.72762963    -0.73500
Al1367     Al  0.87518720  0.02025497  0.73344857     1.90100
O1368       O  0.88971899  0.05004234  0.67363576    -0.72500
O1369       O  0.89112350  0.15105126  0.71649018    -0.72400
O1370       O  0.84486826  0.10935964  0.66668468    -0.78000
O1371       O  0.87773185  0.14165470  0.75988514    -0.76200
O1372       O  0.86947737  0.07352742  0.72448185    -1.12400
O1373       O  0.85624182  0.07688040  0.78214355    -0.71600
C1374       C  0.87665566  0.04856108  0.79550290     0.99200
C1375       C  0.87577102  0.01594798  0.66924132     0.95600
Al1376     Al  0.88841884  0.09672552  0.69837120     1.55600
O1377       O  0.83155729  0.01123155  0.73460841    -0.76200
C1378       C  0.88633650  0.16537498  0.74155003     0.99700
C1379       C  0.94187264  0.04527297  0.73671880     0.94600
O1380       O  0.92025260  0.01898025  0.73596802    -0.81500
O1381       O  0.62287751  0.02806811  0.96742101    -0.81000
C1382       C  0.68999451  0.12710292  0.57280919     0.98400
O1383       O  0.68652074  0.13630527  0.54368350    -0.70100
O1384       O  0.70532561  0.06922635  0.52549391    -0.73700
Al1385     Al  0.66876074  0.10267281  0.00594738     1.49000
C1386       C  0.70682265  0.03236300  0.51861449     0.93600
O1387       O  0.65132705  0.00324126  0.55881715    -0.79900
O1388       O  0.57830951  0.08258694  0.51745333    -0.73500
Al1389     Al  0.63776965  0.01952614  0.51324186     1.90100
O1390       O  0.62245475  0.05120865  0.57209850    -0.72500
O1391       O  0.61989228  0.15126319  0.52753250    -0.72400
O1392       O  0.66629578  0.10968596  0.57894311    -0.78000
O1393       O  0.63475033  0.14053114  0.98509527    -0.76200
O1394       O  0.64280341  0.07293187  0.52162949    -1.12400
O1395       O  0.65796747  0.07498459  0.96518601    -0.71600
C1396       C  0.63774254  0.04746391  0.95151176     0.99200
C1397       C  0.63615442  0.01653708  0.57734818     0.95600
Al1398     Al  0.62304161  0.09711174  0.54676995     1.55600
O1399       O  0.68199223  0.00954614  0.51320303    -0.76200
C1400       C  0.62599365  0.16503704  0.50294562     0.99700
C1401       C  0.57033951  0.04547282  0.50881248     0.94600
O1402       O  0.59247195  0.01911225  0.50978722    -0.81500
O1403       O  0.67506205  0.47503026  0.50319929    -0.81000
C1404       C  0.56773206  0.38008705  0.92675951     0.98400
O1405       O  0.59694980  0.37697563  0.92532846    -0.70100
O1406       O  0.62291839  0.44557548  0.91593296    -0.73700
Al1407     Al  0.63805736  0.40589840  0.94896468     1.49000
C1408       C  0.62680599  0.48352733  0.91802238     0.93600
O1409       O  0.58355588  0.49920018  0.97064882    -0.79900
O1410       O  0.62189723  0.41213905  0.53672917    -0.73500
Al1411     Al  0.62912609  0.48376426  0.98636831     1.90100
O1412       O  0.56780330  0.44873694  0.99508907    -0.72500
O1413       O  0.61332432  0.35270976  0.49409330    -0.72400
O1414       O  0.56325537  0.39456136  0.95170334    -0.78000
O1415       O  0.65572994  0.35978418  0.97747828    -0.76200
O1416       O  0.62083054  0.43116178  0.97614160    -1.12400
O1417       O  0.68160465  0.43333188  0.96628663    -0.71600
C1418       C  0.69304939  0.46068439  0.98803949     0.99200
C1419       C  0.56303889  0.48339843  0.98196283     0.95600
Al1420     Al  0.59414137  0.40417928  0.99289670     1.55600
O1421       O  0.63147833  0.50154753  0.94478242    -0.76200
C1422       C  0.63850560  0.33805686  0.98955842     0.99700
C1423       C  0.62806537  0.44759428  0.54853321     0.94600
O1424       O  0.62902623  0.47781944  0.53053030    -0.81500
C1425       C  0.63875644  0.27764922  0.52373085     0.24400
C1426       C  0.64428304  0.29390212  0.99612265    -0.23700
C1427       C  0.64444203  0.26744933  0.97082694     0.19300
C1428       C  0.63734374  0.22582348  0.97234632     0.24400
C1429       C  0.62980831  0.20988739  0.99924152    -0.23600
C1430       C  0.63155740  0.23633530  0.52532708     0.19300
F1431       F  0.62650777  0.22244920  0.55268894    -0.13600
F1432       F  0.63865175  0.30256768  0.54864819    -0.15900
F1433       F  0.63726830  0.20138815  0.94713748    -0.15900
F1434       F  0.64896196  0.28245952  0.94353247    -0.13600
C1435       C  0.75221018  0.13539838  0.58981952     0.24400
C1436       C  0.72316042  0.13413078  0.59854011    -0.23700
C1437       C  0.72699030  0.13640019  0.63183339     0.19300
C1438       C  0.75880449  0.13779453  0.65567092     0.24400
C1439       C  0.78785448  0.13457220  0.64703322    -0.23600
C1440       C  0.78399085  0.13447424  0.61368416     0.19300
F1441       F  0.81100170  0.13308416  0.60402440    -0.13600
F1442       F  0.75012673  0.13573739  0.55800092    -0.15900
F1443       F  0.76097960  0.14064464  0.68742976    -0.15900
F1444       F  0.69994379  0.13707647  0.64143673    -0.13600
C1445       C  0.53784613  0.37136627  0.86657100     0.24400
C1446       C  0.53761225  0.36941532  0.89868543    -0.23700
C1447       C  0.50686634  0.36351123  0.90350779     0.19300
C1448       C  0.97688912  0.36459029  0.87709293     0.24400
C1449       C  0.97695324  0.37135899  0.84524056    -0.23600
C1450       C  0.50799739  0.37204626  0.84020270     0.19300
F1451       F  0.50966868  0.37558269  0.80968976    -0.13600
F1452       F  0.56675626  0.37591077  0.86060003    -0.15900
F1453       F  0.94785483  0.36160718  0.88304211    -0.15900
F1454       F  0.50561217  0.35863270  0.93406420    -0.13600
C1455       C  0.88326708  0.27916054  0.72359871     0.24400
C1456       C  0.87341854  0.29574829  0.74876568    -0.23700
C1457       C  0.86839503  0.26930046  0.77203514     0.19300
C1458       C  0.87399798  0.22707215  0.77066788     0.24400
C1459       C  0.88482618  0.21044436  0.74591144    -0.23600
C1460       C  0.88901785  0.23721478  0.72221374     0.19300
F1461       F  0.89863221  0.22302765  0.69743059    -0.13600
F1462       F  0.88842764  0.30400887  0.70074306    -0.15900
F1463       F  0.86890037  0.20263867  0.79375477    -0.15900
F1464       F  0.86009313  0.28455740  0.79728401    -0.13600
C1465       C  0.73434523  0.49351942  0.76551566     0.24400
C1466       C  0.72387017  0.52681929  0.74331456    -0.23700
C1467       C  0.74403267  0.53739942  0.72505512     0.19300
C1468       C  0.77322129  0.51485863  0.72814501     0.24400
C1469       C  0.78363964  0.48100549  0.75007617    -0.23600
C1470       C  0.76377280  0.47121413  0.76899462     0.19300
F1471       F  0.77266559  0.43995214  0.79094497    -0.13600
F1472       F  0.71571586  0.48211290  0.78381976    -0.15900
F1473       F  0.79122508  0.52658383  0.70932660    -0.15900
F1474       F  0.73467443  0.56837968  0.70286331    -0.13600
C1475       C  0.96863158  0.53741410  0.73512163     0.24400
C1476       C  0.97367577  0.51208338  0.76236073    -0.23700
C1477       C  0.50510783  0.49509665  0.77867669     0.19300
C1478       C  0.53078473  0.50082020  0.76639088     0.24400
C1479       C  0.52517708  0.52369946  0.73758752    -0.23600
C1480       C  0.49415728  0.54290780  0.72257528     0.19300
F1481       F  0.48816808  0.56561419  0.69500654    -0.13600
F1482       F  0.93793727  0.55285113  0.71852651    -0.15900
F1483       F  0.56108361  0.48421642  0.78278565    -0.15900
F1484       F  0.50993793  0.46985323  0.80476336    -0.13600
C1485       C  0.65123811  0.50837391  0.84477161     0.24400
C1486       C  0.62737603  0.53816837  0.82834392    -0.23700
C1487       C  0.60543666  0.55335749  0.84393572     0.19300
C1488       C  0.60618108  0.53725031  0.87413753     0.24400
C1489       C  0.62852114  0.50557795  0.88904755    -0.23600
C1490       C  0.65149186  0.49202042  0.87452718     0.19300
F1491       F  0.67381541  0.46193183  0.88889556    -0.13600
F1492       F  0.67369487  0.49377602  0.83157844    -0.15900
F1493       F  0.58368466  0.55067447  0.88770603    -0.15900
F1494       F  0.58203864  0.58221933  0.82929465    -0.13600
C1495       C  0.60486833  0.44467668  0.59427926     0.24400
C1496       C  0.63073683  0.45554459  0.58269953    -0.23700
C1497       C  0.65589646  0.48077669  0.60173307     0.19300
C1498       C  0.65428221  0.49716614  0.63070570     0.24400
C1499       C  0.62674984  0.48980933  0.64090800    -0.23600
C1500       C  0.60282703  0.46181533  0.62322998     0.19300
F1501       F  0.57639058  0.45334479  0.63257705    -0.13600
F1502       F  0.58006154  0.42038139  0.57611859    -0.15900
F1503       F  0.67930641  0.52170098  0.64819752    -0.15900
F1504       F  0.68143529  0.49103599  0.59147821    -0.13600
C1505       C  0.61463240  0.76821770  0.77058707     0.24400
C1506       C  0.62151864  0.79497558  0.74854572    -0.23700
C1507       C  0.63274786  0.77858465  0.72415609     0.19300
C1508       C  0.63857596  0.73667620  0.72274739     0.24400
C1509       C  0.63259842  0.70961613  0.74527558    -0.23600
C1510       C  0.62006844  0.72596266  0.76901265     0.19300
F1511       F  0.61314341  0.70123626  0.79092761    -0.13600
F1512       F  0.60459467  0.78311580  0.79488993    -0.15900
F1513       F  0.65021927  0.72281672  0.69920585    -0.15900
F1514       F  0.63943798  0.80363525  0.70226014    -0.13600
C1515       C  0.65418531  0.03528250  0.87135692     0.24400
C1516       C  0.63315470  0.00296003  0.85732640    -0.23700
C1517       C  0.61124158  0.98837076  0.87246933     0.19300
C1518       C  0.61121010  0.00463962  0.90203202     0.24400
C1519       C  0.63360111  0.03555152  0.91744131    -0.23600
C1520       C  0.65463072  0.05137479  0.90132150     0.19300
F1521       F  0.67688813  0.08090071  0.91520284    -0.13600
F1522       F  0.67572772  0.04944219  0.85712252    -0.15900
F1523       F  0.59001731  0.98886455  0.91603214    -0.15900
F1524       F  0.59014795  0.95759348  0.85879485    -0.13600
C1525       C  0.65125767  0.94158776  0.64855393     0.24400
C1526       C  0.62947893  0.95806081  0.66362936    -0.23700
C1527       C  0.60726746  0.98929172  0.64776050     0.19300
C1528       C  0.60847478  0.00625890  0.61890534     0.24400
C1529       C  0.63251492  0.99291722  0.60521155    -0.23600
C1530       C  0.65280694  0.95898971  0.61947216     0.19300
F1531       F  0.67528436  0.94416664  0.60642339    -0.13600
F1532       F  0.67283483  0.91094389  0.66326936    -0.15900
F1533       F  0.58653174  0.03700657  0.60511019    -0.15900
F1534       F  0.58526473  0.00494088  0.66113842    -0.13600
C1535       C  0.98726607  0.99651941  0.76889642     0.24400
C1536       C  0.97676034  0.02922715  0.74616437    -0.23700
C1537       C  0.49707646  0.03970406  0.72808793     0.19300
C1538       C  0.52624142  0.01711014  0.73143256     0.24400
C1539       C  0.53639245  0.98329823  0.75340691    -0.23600
C1540       C  0.51668076  0.97413114  0.77263214     0.19300
F1541       F  0.52575712  0.94353612  0.79518073    -0.13600
F1542       F  0.96862568  0.98574010  0.78736544    -0.15900
F1543       F  0.54442004  0.02865023  0.71273902    -0.15900
F1544       F  0.48780626  0.07050578  0.70573326    -0.13600
C1545       C  0.74709657  0.04017045  0.72410200     0.24400
C1546       C  0.77826332  0.02114429  0.73864445    -0.23700
C1547       C  0.78390023  0.99626186  0.76643118     0.19300
C1548       C  0.75830018  0.98909793  0.77852920     0.24400
C1549       C  0.72695581  0.00682854  0.76316237    -0.23600
C1550       C  0.72161677  0.03319748  0.73645268     0.19300
F1551       F  0.69083462  0.04876539  0.72037342    -0.13600
F1552       F  0.74102861  0.06439704  0.69730917    -0.15900
F1553       F  0.76324569  0.96232733  0.80371326    -0.15900
F1554       F  0.81425497  0.97938284  0.78220318    -0.13600
C1555       C  0.97481322  0.63607724  0.62939350     0.24400
C1556       C  0.97110300  0.63375870  0.59611537    -0.23700
C1557       C  0.50015923  0.63550320  0.58747436     0.19300
C1558       C  0.53191642  0.63511220  0.61144770     0.24400
C1559       C  0.53567252  0.63506484  0.64479018    -0.23600
C1560       C  0.50654385  0.63793970  0.65330149     0.19300
F1561       F  0.50857539  0.64085184  0.68501816    -0.13600
F1562       F  0.94772075  0.63619449  0.63893411    -0.15900
F1563       F  0.55901380  0.63440093  0.60192211    -0.15900
F1564       F  0.49809426  0.63567339  0.55566096    -0.13600
C1565       C  0.90539654  0.46068833  0.61934220     0.24400
C1566       C  0.88174693  0.49032918  0.60246460    -0.23700
C1567       C  0.85535665  0.49991302  0.61399723     0.19300
C1568       C  0.85462736  0.48400835  0.64333918     0.24400
C1569       C  0.87966514  0.45729185  0.66164017    -0.23600
C1570       C  0.90432977  0.44415484  0.64887115     0.19300
F1571       F  0.92895707  0.41820506  0.66631407    -0.13600
F1572       F  0.93068683  0.45000016  0.60865055    -0.15900
F1573       F  0.83020825  0.49642748  0.65476514    -0.15900
F1574       F  0.83074192  0.52645479  0.59763183    -0.13600
C1575       C  0.85868755  0.50157168  0.90050798     0.24400
C1576       C  0.87692785  0.53674747  0.91375960    -0.23700
C1577       C  0.89399247  0.55687216  0.89542743     0.19300
C1578       C  0.89425376  0.54080387  0.86562840     0.24400
C1579       C  0.87792807  0.50423063  0.85394518    -0.23600
C1580       C  0.85943877  0.48543789  0.87112823     0.19300
F1581       F  0.84248897  0.45067050  0.85968193    -0.13600
F1582       F  0.84133712  0.48132266  0.91663267    -0.15900
F1583       F  0.91214709  0.55949646  0.84928915    -0.15900
F1584       F  0.91168555  0.59107995  0.90689593    -0.13600
C1585       C  0.74266839  0.47836771  0.47102914     0.24400
C1586       C  0.72616863  0.48054458  0.99405628    -0.23700
C1587       C  0.73889928  0.50775429  0.02061001     0.19300
C1588       C  0.76654737  0.53229630  0.02358276     0.24400
C1589       C  0.78310772  0.52975345  0.50078760    -0.23600
C1590       C  0.77080942  0.50228896  0.47452285     0.19300
F1591       F  0.78652222  0.49817381  0.45228409    -0.13600
F1592       F  0.73149762  0.45338515  0.44484582    -0.15900
F1593       F  0.77813331  0.55709234  0.04981794    -0.15900
F1594       F  0.72485374  0.51039922  0.04425410    -0.13600
C1595       C  0.97664940  0.49619349  0.97718932     0.24400
C1596       C  0.98123529  0.51798906  0.50613293    -0.23700
C1597       C  0.51238716  0.53427783  0.52331250     0.19300
C1598       C  0.53881627  0.52811006  0.51207726     0.24400
C1599       C  0.53443448  0.50527103  0.98382474    -0.23600
C1600       C  0.50323731  0.48974403  0.96618834     0.19300
F1601       F  0.49923859  0.46596649  0.93960223    -0.13600
F1602       F  0.94635589  0.48197753  0.95919360    -0.15900
F1603       F  0.56945099  0.54096947  0.53044937    -0.15900
F1604       F  0.51735322  0.55519947  0.55142850    -0.13600
C1605       C  0.75673853  0.86239979  0.84420121     0.24400
C1606       C  0.72587895  0.86991262  0.84850801    -0.23700
C1607       C  0.72538683  0.87433199  0.88038951     0.19300
C1608       C  0.75511017  0.87512785  0.90694604     0.24400
C1609       C  0.78631828  0.87198054  0.90232441    -0.23600
C1610       C  0.78657184  0.86344931  0.87075137     0.19300
F1611       F  0.81567936  0.85839771  0.86512160    -0.13600
F1612       F  0.75819982  0.85583701  0.81390901    -0.15900
F1613       F  0.75310019  0.88109082  0.93710243    -0.15900
F1614       F  0.69632671  0.88129902  0.88575575    -0.13600
C1615       C  0.88320703  0.73569896  0.52640236     0.24400
C1616       C  0.87602336  0.71019211  0.99879065    -0.23700
C1617       C  0.87808533  0.72689561  0.96959758     0.19300
C1618       C  0.88608993  0.76817127  0.96784231     0.24400
C1619       C  0.89229982  0.79359410  0.99518100    -0.23600
C1620       C  0.89103645  0.77682466  0.52448583     0.19300
F1621       F  0.89606251  0.80095931  0.55104080    -0.13600
F1622       F  0.88322034  0.72083358  0.55557441    -0.15900
F1623       F  0.88524874  0.78407909  0.93871936    -0.15900
F1624       F  0.87159456  0.70354581  0.94245185    -0.13600
C1625       C  0.49667775  0.97464055  0.47281450     0.24400
C1626       C  0.97745930  0.98203903  0.99292510    -0.23700
C1627       C  0.98760867  0.01450831  0.01582878     0.19300
C1628       C  0.51600672  0.03771102  0.01889549     0.24400
C1629       C  0.53572313  0.02925473  0.49966642    -0.23600
C1630       C  0.52544131  0.99756402  0.47634752     0.19300
F1631       F  0.54374826  0.98823769  0.45712762    -0.13600
F1632       F  0.48781076  0.94517494  0.44967122    -0.15900
F1633       F  0.52526330  0.06697233  0.04218802    -0.15900
F1634       F  0.97020858  0.02408999  0.03583016    -0.13600
C1635       C  0.75709819  0.99315621  0.46952369     0.24400
C1636       C  0.78831438  0.00883700  0.98691129    -0.23700
C1637       C  0.79289747  0.03120946  0.01546001     0.18500
C1638       C  0.76679093  0.03625610  0.02737420     0.24400
C1639       C  0.73576785  0.01924470  0.51066761    -0.23600
C1640       C  0.73093498  0.99819323  0.48134494     0.19300
F1641       F  0.70078188  0.98321572  0.46379005    -0.13600
F1642       F  0.75281725  0.97021026  0.44246838    -0.15900
F1643       F  0.77199001  0.05673517  0.05571431    -0.15900
F1644       F  0.82349969  0.04458218  0.03343611    -0.13600
C1645       C  0.90838268  0.99487869  0.63398619     0.24400
C1646       C  0.87937307  0.99075770  0.64232646    -0.23700
C1647       C  0.85359136  0.96650530  0.62266204     0.19300
C1648       C  0.85574883  0.94945594  0.59382642     0.24400
C1649       C  0.88361462  0.95666484  0.58434467    -0.23600
C1650       C  0.91021990  0.97850003  0.60505659     0.19300
F1651       F  0.93742057  0.98549066  0.59651891    -0.13600
F1652       F  0.93461544  0.01634752  0.65326280    -0.15900
F1653       F  0.82933561  0.92915929  0.57365846    -0.15900
F1654       F  0.82533367  0.96214766  0.62984727    -0.13600
C1655       C  0.86695672  0.04202416  0.87939700     0.24400
C1656       C  0.88101986  0.00330072  0.88990438    -0.23700
C1657       C  0.89698871  0.98214902  0.87115956     0.19300
C1658       C  0.89746940  0.99821425  0.84165710     0.24400
C1659       C  0.88149806  0.03581991  0.82970724    -0.23600
C1660       C  0.86690914  0.05807780  0.84937339     0.19300
F1661       F  0.85164440  0.09473784  0.83916910    -0.13600
F1662       F  0.85169564  0.06321502  0.89723479    -0.15900
F1663       F  0.91229023  0.97562026  0.82415309    -0.15900
F1664       F  0.91192218  0.94523313  0.88125594    -0.13600
loop_ 
_geom_bond_atom_site_label_1 
_geom_bond_atom_site_label_2 
_geom_bond_distance 
_geom_bond_site_symmetry_2 
_ccdc_geom_bond_type 
O1          C432   1.256   1_554  A
O1         Al425   1.866   1_554  S
C2           O12   1.257       .  A
C2            O3   1.278       .  A
C2          C361   1.500       .  S
O3           Al5   1.981       .  S
O4            C6   1.252       .  A
O4           Al5   1.865       .  S
Al5          O13   1.931       .  S
Al5          O15   2.013       .  S
Al5          O14   1.783       .  S
C6           O19   1.263   1_565  A
C6          C408   1.477   1_565  S
O7           C17   1.259   1_545  A
O7           Al9   1.901   1_545  S
O8           C21   1.263       .  A
O8         Al434   1.894   1_554  S
Al9          O19   1.943   1_565  S
Al9         O417   1.866       .  S
Al9         O438   1.936       .  S
Al9          O14   1.785       .  S
O10          C17   1.252       .  A
O10         Al18   1.858       .  S
O11         C436   1.251       .  A
O11        Al434   1.863       .  S
O12         Al18   1.862       .  S
O13          C20   1.266       .  A
O14         Al18   1.782       .  S
O15          C16   1.285       .  A
C16         O417   1.256       .  A
C16         C378   1.518       .  S
C17         C388   1.437   1_565  S
Al18        O424   1.894       .  S
Al18        O427   1.863       .  S
C20         O427   1.251       .  A
C20         C371   1.473       .  S
C21          O22   1.270       .  A
C21         C401   1.471       .  S
O22        Al425   1.936   1_554  S
O23          C38   1.262       .  A
O23        Al447   1.898       .  S
C24          O34   1.272       .  A
C24          O25   1.263       .  A
C24         C308   1.504       .  S
O25        Al443   1.922       .  S
O26          C28   1.249       .  A
O26        Al443   1.849       .  S
Al27         O35   1.882       .  S
Al27         O37   1.914       .  S
Al27        O441   1.922       .  S
Al27        O442   1.849       .  S
Al27        O452   1.782       .  S
C28          O41   1.262       .  A
C28         C348   1.452       .  S
O29          C39   1.267       .  A
O29         Al31   1.939       .  S
O30          C43   1.285       .  A
O30         Al40   1.969       .  S
Al31         O44   1.891       .  S
Al31         O41   1.913       .  S
Al31        O439   1.898   1_554  S
Al31         O36   1.786       .  S
O32          C39   1.255       .  A
O32         Al40   1.867       .  S
O33          C42   1.267       .  A
O33         Al40   1.942       .  S
O34         Al40   1.949       .  S
O35         C458   1.256       .  A
O36         Al40   1.778       .  S
O36        Al443   1.782       .  S
O37          C38   1.261       .  A
C38         C328   1.490       .  S
C39         C318   1.484       .  S
C42         O451   1.256   1_554  A
C42         C784   1.490   1_554  S
C43          O44   1.262       .  A
C43         C341   1.496       .  S
O45          C60   1.256       .  A
O45         Al53   1.869       .  S
C46          O56   1.258       .  A
C46          O47   1.277       .  A
C46         C358   1.492       .  S
O47         Al49   1.971       .  S
O48          C50   1.253       .  A
O48         Al49   1.867       .  S
Al49         O57   1.932       .  S
Al49         O59   1.990       .  S
Al49         O58   1.787       .  S
C50          O63   1.261   1_565  A
C50         C268   1.467   1_565  S
O51          C61   1.257       .  A
O51         Al53   1.897       .  S
O52          C65   1.264       .  A
O52         Al62   1.899       .  S
Al53         O66   1.923       .  S
Al53         O63   1.925   1_565  S
Al53         O58   1.783       .  S
O54          C61   1.251       .  A
O54         Al62   1.855       .  S
O55          C64   1.250       .  A
O55         Al62   1.853       .  S
O56         Al62   1.867       .  S
O57          C64   1.266       .  A
O58         Al62   1.786       .  S
O59          C60   1.280       .  A
C60         C291   1.511       .  S
C61         C301   1.438   1_565  S
C64         C258   1.476       .  S
C65          O66   1.269       .  A
C65         C278   1.475       .  S
O67          C82   1.264       .  A
O67         Al75   1.905       .  S
C68          O78   1.272       .  A
C68          O69   1.262       .  A
C68         C311   1.505       .  S
O69         Al71   1.921       .  S
O70          C72   1.248       .  A
O70         Al71   1.851       .  S
Al71         O79   1.876       .  S
Al71         O81   1.917       .  S
Al71         O80   1.782       .  S
C72          O85   1.264       .  A
C72         C231   1.458       .  S
O73          C83   1.270       .  A
O73         Al75   1.944       .  S
O74          C87   1.285       .  A
O74         Al84   1.968       .  S
Al75         O88   1.897       .  S
Al75         O85   1.922       .  S
Al75         O80   1.782       .  S
O76          C83   1.256       .  A
O76         Al84   1.876       .  S
O77          C86   1.268       .  A
O77         Al84   1.943       .  S
O78         Al84   1.951       .  S
O79          C86   1.255       .  A
O80         Al84   1.776       .  S
O81          C82   1.262       .  A
C82         C238   1.492       .  S
C83         C251   1.488       .  S
C86         C261   1.489       .  S
C87          O88   1.263       .  A
C87         C218   1.503       .  S
O89         C104   1.257       .  A
O89         Al97   1.871       .  S
C90         O100   1.255       .  A
C90          O91   1.279       .  A
C90         C201   1.497       .  S
O91         Al93   1.985       .  S
O92          C94   1.254       .  A
O92         Al93   1.869       .  S
Al93        O101   1.926       .  S
Al93        O103   2.002       .  S
Al93        O102   1.783       .  S
C94         O107   1.263       .  A
C94         C331   1.472       .  S
O95         C105   1.258       .  A
O95         Al97   1.898       .  S
O96         C109   1.261       .  A
O96        Al106   1.888       .  S
Al97        O110   1.932       .  S
Al97        O107   1.936       .  S
Al97        O102   1.782       .  S
O98         C105   1.253       .  A
O98        Al106   1.861       .  S
O99         C108   1.252       .  A
O99        Al106   1.863       .  S
O100       Al106   1.853       .  S
O101        C108   1.266       .  A
O102       Al106   1.781       .  S
O103        C104   1.282       .  A
C104        C221   1.515       .  S
C105        C228   1.438       .  S
C108        C208   1.474       .  S
C109        O110   1.270       .  A
C109        C321   1.471       .  S
O111        C126   1.261       .  A
O111       Al119   1.894       .  S
C112        O122   1.273       .  A
C112        O113   1.264       .  A
C112        C191   1.504       .  S
O113       Al115   1.922       .  S
O114        C116   1.249       .  A
O114       Al115   1.851       .  S
Al115       O123   1.881       .  S
Al115       O125   1.920       .  S
Al115       O124   1.783       .  S
C116        O129   1.262       .  A
C116        C298   1.457       .  S
O117        C127   1.267       .  A
O117       Al119   1.937       .  S
O118        C131   1.284       .  A
O118       Al128   1.964       .  S
Al119       O132   1.896       .  S
Al119       O129   1.913       .  S
Al119       O124   1.779       .  S
O120        C127   1.255       .  A
O120       Al128   1.880       .  S
O121        C130   1.265       .  A
O121       Al128   1.934       .  S
O122       Al128   1.949       .  S
O123        C130   1.255       .  A
O124       Al128   1.777       .  S
O125        C126   1.262       .  A
C126        C411   1.490       .  S
C127        C398   1.482   1_545  S
C130        C211   1.489       .  S
C131        O132   1.264       .  A
C131        C288   1.497       .  S
O133        C148   1.262       .  A
O133       Al557   1.896       .  S
C134        O144   1.274       .  A
C134        O135   1.261       .  A
C134        C188   1.504       .  S
O135       Al553   1.916       .  S
O136        C138   1.248       .  A
O136       Al553   1.850       .  S
Al137       O145   1.880       .  S
Al137       O147   1.909       .  S
Al137       O551   1.916       .  S
Al137       O552   1.850       .  S
Al137       O562   1.783       .  S
C138        O151   1.263       .  A
C138        C391   1.455       .  S
O139        C149   1.268       .  A
O139       Al141   1.941       .  S
O140        C153   1.287       .  A
O140       Al150   1.976       .  S
Al141       O154   1.895       .  S
Al141       O151   1.918       .  S
Al141       O549   1.896   1_554  S
Al141       O146   1.785       .  S
O142        C149   1.254       .  A
O142       Al150   1.865       .  S
O143        C152   1.267       .  A
O143       Al150   1.940       .  S
O144       Al150   1.959       .  S
O145        C568   1.256       .  A
O146       Al150   1.774       .  S
O146       Al553   1.783       .  S
O147        C148   1.260       .  A
C148        C271   1.486       .  S
C149        C281   1.489   1_545  S
C152        O561   1.256   1_554  A
C152        C597   1.491   1_554  S
C153        O154   1.263       .  A
C153        C381   1.504   1_554  S
O155        C586   1.258   1_554  A
O155       Al579   1.872   1_554  S
C156        O166   1.257       .  A
C156        O157   1.276       .  A
C156        C198   1.493       .  S
O157       Al159   1.969       .  S
O158        C160   1.253       .  A
O158       Al159   1.874       .  S
Al159       O167   1.927       .  S
Al159       O169   1.987       .  S
Al159       O168   1.789       .  S
C160        O173   1.262       .  A
C160        C241   1.475       .  S
O161        C171   1.258       .  A
O161       Al163   1.899       .  S
O162        C175   1.263       .  A
O162       Al588   1.898   1_554  S
Al163       O173   1.935       .  S
Al163       O571   1.872       .  S
Al163       O592   1.933       .  S
Al163       O168   1.787       .  S
O164        C171   1.251       .  A
O164       Al172   1.853       .  S
O165        C590   1.250       .  A
O165       Al588   1.855       .  S
O166       Al172   1.865       .  S
O167        C174   1.264       .  A
O168       Al172   1.789       .  S
O169        C170   1.280       .  A
C170        O571   1.258       .  A
C170        C338   1.509       .  S
C171        C351   1.436       .  S
Al172       O578   1.898       .  S
Al172       O581   1.856       .  S
C174        O581   1.250       .  A
C174        C178   1.472       .  S
C175        O176   1.269       .  A
C175        C248   1.476       .  S
O176       Al579   1.933   1_554  S
C177        C182   1.396       .  A
C177        C594   1.405   1_554  A
C177        F184   1.359       .  S
C178        C179   1.403       .  A
C178        C593   1.405       .  A
C179        C180   1.404       .  A
C179        F186   1.358       .  S
C180        C181   1.415       .  A
C180        F185   1.358       .  S
C181        C568   1.491       .  S
C181        C598   1.411       .  A
C182        C597   1.411   1_554  A
C182        F183   1.358       .  S
C187        C188   1.419       .  A
C187        C192   1.407       .  A
C187        F194   1.357       .  S
C188        C189   1.404       .  A
C189        C190   1.409       .  A
C189        F196   1.357       .  S
C190        C191   1.418       .  A
C190        F195   1.357       .  S
C191        C192   1.404       .  A
C192        F193   1.358       .  S
C197        C198   1.402       .  A
C197        C202   1.401       .  A
C197        F204   1.358       .  S
C198        C199   1.417       .  A
C199       C1032   1.406   1_455  A
C199        F206   1.358       .  S
C200        C201   1.404       .  A
C200       C1031   1.406       .  A
C200        F205   1.357       .  S
C201       C1034   1.419       .  A
C202       C1033   1.419   1_455  A
C202        F203   1.358       .  S
C207        C208   1.407       .  A
C207        C212   1.395       .  A
C207        F214   1.359       .  S
C208        C209   1.402       .  A
C209        C210   1.403       .  A
C209        F216   1.358       .  S
C210        C211   1.416       .  A
C210        F215   1.358       .  S
C211        C212   1.409       .  A
C212        F213   1.358       .  S
C217        C218   1.418       .  A
C217        C222   1.411       .  A
C217        F224   1.358       .  S
C218        C219   1.402       .  A
C219        C220   1.409       .  A
C219        F226   1.358       .  S
C220        C221   1.425       .  A
C220        F225   1.358       .  S
C221        C222   1.408       .  A
C222        F223   1.357       .  S
C227        C228   1.398       .  A
C227       C1064   1.390       .  A
C227        F234   1.359       .  S
C228       C1061   1.400       .  A
C229        C230   1.390       .  A
C229       C1060   1.400   1_455  A
C229        F236   1.358       .  S
C230        C231   1.406       .  A
C230        F235   1.358       .  S
C231        C232   1.407   1_455  A
C232       C1059   1.390       .  A
C232        F233   1.356       .  S
C237        C238   1.408       .  A
C237        C242   1.396       .  A
C237        F244   1.358       .  S
C238        C239   1.417       .  A
C239        C240   1.405       .  A
C239        F246   1.358       .  S
C240        C241   1.401       .  A
C240        F245   1.358       .  S
C241        C242   1.404       .  A
C242        F243   1.358       .  S
C247        C248   1.412       .  A
C247        C252   1.409       .  A
C247        F254   1.357       .  S
C248        C249   1.397       .  A
C249        C250   1.394       .  A
C249        F256   1.358       .  S
C250        C251   1.416       .  A
C250        F255   1.359       .  S
C251        C252   1.405       .  A
C252        F253   1.357       .  S
C257        C258   1.402       .  A
C257        C262   1.403       .  A
C257        F264   1.358       .  S
C258        C259   1.409       .  A
C259        C260   1.394       .  A
C259        F266   1.359       .  S
C260        C261   1.407       .  A
C260        F265   1.358       .  S
C261        C262   1.417       .  A
C262        F263   1.358       .  S
C267        C268   1.399       .  A
C267        C272   1.401       .  A
C267        F274   1.358       .  S
C268        C269   1.403   1_545  A
C269        C270   1.394   1_565  A
C269        F276   1.359       .  S
C270        C271   1.409       .  A
C270        F275   1.358   1_545  S
C271        C272   1.416       .  A
C272        F273   1.358       .  S
C277        C278   1.411       .  A
C277        C282   1.408       .  A
C277        F284   1.357       .  S
C278        C279   1.398       .  A
C279        C280   1.389   1_565  A
C279        F286   1.359   1_565  S
C280        C281   1.417   1_545  A
C280        F285   1.359       .  S
C281        C282   1.407       .  A
C282        F283   1.357       .  S
C287        C288   1.417   1_565  A
C287       C1124   1.410       .  A
C287        F294   1.358       .  S
C288       C1121   1.400       .  A
C289        C290   1.407   1_655  A
C289       C1120   1.400       .  A
C289        F296   1.358       .  S
C290        C291   1.424   1_545  A
C290        F295   1.357       .  S
C291        C292   1.408       .  A
C292       C1119   1.410   1_455  A
C292        F293   1.357       .  S
C297        C298   1.406       .  A
C297        C302   1.390       .  A
C297        F304   1.357       .  S
C298        C299   1.406   1_545  A
C299        C300   1.389       .  A
C299        F306   1.358       .  S
C300        C301   1.400   1_565  A
C300        F305   1.359       .  S
C301        C302   1.399       .  A
C302        F303   1.359       .  S
C307        C308   1.405       .  A
C307       C1144   1.408       .  A
C307        F314   1.358       .  S
C308       C1141   1.418       .  A
C309        C310   1.408       .  A
C309       C1140   1.418   1_455  A
C309        F316   1.357   1_455  S
C310        C311   1.405       .  A
C310        F315   1.357       .  S
C311        C312   1.418       .  A
C312       C1139   1.408   1_455  A
C312        F313   1.357       .  S
C317        C318   1.405       .  A
C317        C322   1.408       .  A
C317        F324   1.357       .  S
C318        C319   1.415       .  A
C319        C320   1.388       .  A
C319        F326   1.356       .  S
C320        C321   1.395       .  A
C320        F325   1.359       .  S
C321        C322   1.412       .  A
C322        F323   1.358       .  S
C327        C328   1.410       .  A
C327        C332   1.394       .  A
C327        F334   1.358       .  S
C328        C329   1.416       .  A
C329        C330   1.404       .  A
C329        F336   1.357       .  S
C330        C331   1.400       .  A
C330        F335   1.358       .  S
C331        C332   1.404       .  A
C332        F333   1.359       .  S
C337        C342   1.410       .  A
C337        C754   1.409       .  A
C337        F344   1.357       .  S
C338        C339   1.420       .  A
C338        C753   1.409       .  A
C339        C340   1.408       .  A
C339        F346   1.358       .  S
C340        C757   1.403       .  A
C340        F345   1.356       .  S
C341        C342   1.415   1_554  A
C341        C756   1.403       .  A
C342        F343   1.358       .  S
C347        C764   1.405       .  A
C347       C1184   1.390       .  A
C347        F354   1.358       .  S
C348        C763   1.405   1_554  A
C348       C1181   1.404       .  A
C349        C350   1.389       .  A
C349       C1180   1.404   1_455  A
C349        F356   1.357       .  S
C350        C767   1.400   1_554  A
C350        F355   1.359       .  S
C351        C352   1.400       .  A
C351        C766   1.400       .  A
C352       C1179   1.390   1_455  A
C352        F353   1.359   1_455  S
C357        C358   1.415       .  A
C357        C362   1.406       .  A
C357        F364   1.358       .  S
C358        C359   1.402       .  A
C359        C360   1.403       .  A
C359        F366   1.358       .  S
C360        C361   1.420       .  A
C360        F365   1.358       .  S
C361        C362   1.406       .  A
C362        F363   1.357       .  S
C367        C372   1.399       .  A
C367        C784   1.411   1_554  A
C367        F374   1.358       .  S
C368        C458   1.490       .  S
C368        C369   1.412       .  A
C368        C783   1.411       .  A
C369        C370   1.404       .  A
C369        F376   1.358       .  S
C370        C371   1.405       .  A
C370        F375   1.358       .  S
C371        C788   1.405       .  A
C372        C787   1.405   1_554  A
C372        F373   1.358       .  S
C377        C382   1.414   1_655  A
C377       C1626   1.409       .  A
C377        F384   1.357       .  S
C378        C379   1.426   1_565  A
C378       C1625   1.409       .  A
C379       C1212   1.409       .  A
C379        F386   1.358       .  S
C380       C1211   1.409   1_455  A
C380        C797   1.401       .  A
C380        F385   1.358       .  S
C381        C382   1.419   1_545  A
C381        C796   1.401   1_556  A
C382        F383   1.358       .  S
C387        C392   1.390       .  A
C387        C804   1.400   1_565  A
C387        F394   1.358       .  S
C388        C389   1.400       .  A
C388        C803   1.400   1_545  A
C389        C390   1.390       .  A
C389        F396   1.359       .  S
C390        C807   1.405       .  A
C390        F395   1.357       .  S
C391        C392   1.405   1_544  A
C391        C806   1.405       .  A
C392        F393   1.358       .  S
C397        C398   1.415       .  A
C397        C402   1.395       .  A
C397        F404   1.359   1_565  S
C398        C399   1.403       .  A
C399        C400   1.405       .  A
C399        F406   1.357       .  S
C400        C401   1.410       .  A
C400        F405   1.358       .  S
C401        C402   1.397       .  A
C402        F403   1.358       .  S
C407        C408   1.402       .  A
C407        C412   1.406       .  A
C407        F414   1.357       .  S
C408        C409   1.406   1_545  A
C409        C410   1.393       .  A
C409        F416   1.359       .  S
C410        C411   1.409   1_565  A
C410        F415   1.358       .  S
C411        C412   1.415       .  A
C412        F413   1.357       .  S
C418        O428   1.257       .  A
C418        O419   1.278       .  A
C418        C777   1.500       .  S
O419       Al421   1.981       .  S
O420        C422   1.252       .  A
O420       Al421   1.865       .  S
Al421       O429   1.931       .  S
Al421       O431   2.013       .  S
Al421       O430   1.783       .  S
C422        O435   1.263   1_565  A
C422        C824   1.477   1_565  S
O423        C433   1.259   1_545  A
O423       Al425   1.901   1_545  S
O424        C437   1.263       .  A
Al425       O435   1.943   1_565  S
Al425       O430   1.785       .  S
O426        C433   1.252       .  A
O426       Al434   1.858       .  S
O428       Al434   1.862       .  S
O429        C436   1.266       .  A
O430       Al434   1.782       .  S
O431        C432   1.285       .  A
C432        C794   1.518       .  S
C433        C804   1.437   1_565  S
C436        C787   1.473       .  S
C437        O438   1.270       .  A
C437        C817   1.471       .  S
O439        C454   1.262       .  A
C440        O450   1.272       .  A
C440        O441   1.263       .  A
C440        C724   1.504       .  S
O442        C444   1.249       .  A
Al443       O451   1.882   1_554  S
Al443       O453   1.914   1_554  S
C444        O457   1.262       .  A
C444        C764   1.452       .  S
O445        C455   1.267       .  A
O445       Al447   1.939       .  S
O446        C459   1.285       .  A
O446       Al456   1.969       .  S
Al447       O460   1.891       .  S
Al447       O457   1.913       .  S
Al447       O452   1.786       .  S
O448        C455   1.255       .  A
O448       Al456   1.867       .  S
O449        C458   1.267       .  A
O449       Al456   1.942       .  S
O450       Al456   1.949       .  S
O452       Al456   1.778       .  S
O453        C454   1.261       .  A
C454        C744   1.490       .  S
C455        C734   1.484       .  S
C459        O460   1.262       .  A
C459        C757   1.496       .  S
O461        C476   1.256       .  A
O461       Al469   1.869       .  S
C462        O472   1.258       .  A
C462        O463   1.277       .  A
C462        C774   1.492       .  S
O463       Al465   1.971       .  S
O464        C466   1.253       .  A
O464       Al465   1.867       .  S
Al465       O473   1.932       .  S
Al465       O475   1.990       .  S
Al465       O474   1.787       .  S
C466        O479   1.261   1_565  A
C466        C684   1.467   1_565  S
O467        C477   1.257       .  A
O467       Al469   1.897       .  S
O468        C481   1.264       .  A
O468       Al478   1.899       .  S
Al469       O482   1.922       .  S
Al469       O479   1.925   1_565  S
Al469       O474   1.783       .  S
O470        C477   1.251       .  A
O470       Al478   1.855       .  S
O471        C480   1.250       .  A
O471       Al478   1.853       .  S
O472       Al478   1.867       .  S
O473        C480   1.266       .  A
O474       Al478   1.786       .  S
O475        C476   1.280       .  A
C476        C707   1.511       .  S
C477        C717   1.438   1_565  S
C480        C674   1.476       .  S
C481        O482   1.269       .  A
C481        C694   1.475       .  S
O483        C498   1.264       .  A
O483       Al491   1.905       .  S
C484        O494   1.272       .  A
C484        O485   1.262       .  A
C484        C727   1.505       .  S
O485       Al487   1.921       .  S
O486        C488   1.248       .  A
O486       Al487   1.851       .  S
Al487       O495   1.876       .  S
Al487       O497   1.917       .  S
Al487       O496   1.782       .  S
C488        O501   1.264       .  A
C488        C647   1.458       .  S
O489        C499   1.270       .  A
O489       Al491   1.944       .  S
O490        C503   1.285       .  A
O490       Al500   1.968       .  S
Al491       O504   1.897       .  S
Al491       O501   1.922       .  S
Al491       O496   1.782       .  S
O492        C499   1.256       .  A
O492       Al500   1.876       .  S
O493        C502   1.268       .  A
O493       Al500   1.943       .  S
O494       Al500   1.951       .  S
O495        C502   1.255       .  A
O496       Al500   1.776       .  S
O497        C498   1.262       .  A
C498        C654   1.492       .  S
C499        C667   1.488       .  S
C502        C677   1.489       .  S
C503        O504   1.263       .  A
C503        C634   1.503       .  S
O505        C520   1.257       .  A
O505       Al513   1.871       .  S
C506        O516   1.255       .  A
C506        O507   1.279       .  A
C506        C617   1.497       .  S
O507       Al509   1.985       .  S
O508        C510   1.254       .  A
O508       Al509   1.869       .  S
Al509       O517   1.926       .  S
Al509       O519   2.002       .  S
Al509       O518   1.783       .  S
C510        O523   1.263       .  A
C510        C747   1.472       .  S
O511        C521   1.258       .  A
O511       Al513   1.898       .  S
O512        C525   1.261       .  A
O512       Al522   1.888       .  S
Al513       O526   1.932       .  S
Al513       O523   1.936       .  S
Al513       O518   1.782       .  S
O514        C521   1.253       .  A
O514       Al522   1.860       .  S
O515        C524   1.252       .  A
O515       Al522   1.863       .  S
O516       Al522   1.853       .  S
O517        C524   1.266       .  A
O518       Al522   1.781       .  S
O519        C520   1.282       .  A
C520        C637   1.515       .  S
C521        C644   1.438       .  S
C524        C624   1.474       .  S
C525        O526   1.270       .  A
C525        C737   1.471       .  S
O527        C542   1.261       .  A
O527       Al535   1.894       .  S
C528        O538   1.273       .  A
C528        O529   1.264       .  A
C528        C607   1.504       .  S
O529       Al531   1.922       .  S
O530        C532   1.249       .  A
O530       Al531   1.851       .  S
Al531       O539   1.881       .  S
Al531       O541   1.920       .  S
Al531       O540   1.783       .  S
C532        O545   1.262       .  A
C532        C714   1.457       .  S
O533        C543   1.267       .  A
O533       Al535   1.937       .  S
O534        C547   1.284       .  A
O534       Al544   1.964       .  S
Al535       O548   1.896       .  S
Al535       O545   1.913       .  S
Al535       O540   1.779       .  S
O536        C543   1.255       .  A
O536       Al544   1.880       .  S
O537        C546   1.265       .  A
O537       Al544   1.933       .  S
O538       Al544   1.949       .  S
O539        C546   1.255       .  A
O540       Al544   1.777       .  S
O541        C542   1.262       .  A
C542        C827   1.490       .  S
C543        C814   1.482   1_545  S
C546        C627   1.489       .  S
C547        O548   1.264       .  A
C547        C704   1.497       .  S
O549        C564   1.262       .  A
C550        O560   1.274       .  A
C550        O551   1.261       .  A
C550        C604   1.504       .  S
O552        C554   1.248       .  A
Al553       O561   1.880   1_554  S
Al553       O563   1.909   1_554  S
C554        O567   1.263       .  A
C554        C807   1.455       .  S
O555        C565   1.268       .  A
O555       Al557   1.941       .  S
O556        C569   1.287       .  A
O556       Al566   1.976       .  S
Al557       O570   1.895       .  S
Al557       O567   1.918       .  S
Al557       O562   1.785       .  S
O558        C565   1.254       .  A
O558       Al566   1.865       .  S
O559        C568   1.267       .  A
O559       Al566   1.940       .  S
O560       Al566   1.959       .  S
O562       Al566   1.774       .  S
O563        C564   1.260       .  A
C564        C687   1.486       .  S
C565        C697   1.489   1_545  S
C569        O570   1.263       .  A
C569        C797   1.504       .  S
C572        O582   1.257       .  A
C572        O573   1.276       .  A
C572        C614   1.493       .  S
O573       Al575   1.969       .  S
O574        C576   1.253       .  A
O574       Al575   1.874       .  S
Al575       O583   1.927       .  S
Al575       O585   1.987       .  S
Al575       O584   1.789       .  S
C576        O589   1.262       .  A
C576        C657   1.475       .  S
O577        C587   1.258       .  A
O577       Al579   1.899       .  S
O578        C591   1.263       .  A
Al579       O589   1.935       .  S
Al579       O584   1.787       .  S
O580        C587   1.251       .  A
O580       Al588   1.853       .  S
O582       Al588   1.865       .  S
O583        C590   1.264       .  A
O584       Al588   1.789       .  S
O585        C586   1.280       .  A
C586        C754   1.509       .  S
C587        C767   1.436       .  S
C590        C594   1.472       .  S
C591        O592   1.269       .  A
C591        C664   1.476       .  S
C593        C598   1.396       .  A
C593        F600   1.359       .  S
C594        C595   1.403       .  A
C595        C596   1.404       .  A
C595        F602   1.358       .  S
C596        C597   1.415       .  A
C596        F601   1.358       .  S
C598        F599   1.358       .  S
C603        C604   1.419       .  A
C603        C608   1.407       .  A
C603        F610   1.357       .  S
C604        C605   1.404       .  A
C605        C606   1.409       .  A
C605        F612   1.357       .  S
C606        C607   1.418       .  A
C606        F611   1.357       .  S
C607        C608   1.404       .  A
C608        F609   1.358       .  S
C613        C614   1.402       .  A
C613        C618   1.401       .  A
C613        F620   1.358       .  S
C614        C615   1.417       .  A
C615       C1448   1.406   1_455  A
C615        F622   1.358       .  S
C616       C1447   1.406       .  A
C616        C617   1.404       .  A
C616        F621   1.357       .  S
C617       C1450   1.419       .  A
C618       C1449   1.419   1_455  A
C618        F619   1.358       .  S
C623        C624   1.407       .  A
C623        C628   1.395       .  A
C623        F630   1.359       .  S
C624        C625   1.402       .  A
C625        C626   1.403       .  A
C625        F632   1.358       .  S
C626        C627   1.416       .  A
C626        F631   1.358       .  S
C627        C628   1.409       .  A
C628        F629   1.358       .  S
C633        C634   1.418       .  A
C633        C638   1.411       .  A
C633        F640   1.358       .  S
C634        C635   1.402       .  A
C635        C636   1.409       .  A
C635        F642   1.358       .  S
C636        C637   1.425       .  A
C636        F641   1.358       .  S
C637        C638   1.408       .  A
C638        F639   1.357       .  S
C643        C644   1.398       .  A
C643       C1480   1.390       .  A
C643        F650   1.359       .  S
C644       C1477   1.400       .  A
C645       C1476   1.400   1_455  A
C645        C646   1.390       .  A
C645        F652   1.358       .  S
C646        C647   1.406       .  A
C646        F651   1.358       .  S
C647        C648   1.407   1_455  A
C648       C1475   1.390       .  A
C648        F649   1.356       .  S
C653        C654   1.408       .  A
C653        C658   1.396       .  A
C653        F660   1.358       .  S
C654        C655   1.417       .  A
C655        C656   1.405       .  A
C655        F662   1.358       .  S
C656        C657   1.401       .  A
C656        F661   1.358       .  S
C657        C658   1.404       .  A
C658        F659   1.358       .  S
C663        C664   1.412       .  A
C663        C668   1.409       .  A
C663        F670   1.357       .  S
C664        C665   1.397       .  A
C665        C666   1.394       .  A
C665        F672   1.358       .  S
C666        C667   1.416       .  A
C666        F671   1.359       .  S
C667        C668   1.405       .  A
C668        F669   1.357       .  S
C673        C674   1.402       .  A
C673        C678   1.403       .  A
C673        F680   1.358       .  S
C674        C675   1.409       .  A
C675        C676   1.394       .  A
C675        F682   1.359       .  S
C676        C677   1.407       .  A
C676        F681   1.358       .  S
C677        C678   1.417       .  A
C678        F679   1.358       .  S
C683        C684   1.399       .  A
C683        C688   1.401       .  A
C683        F690   1.358       .  S
C684        C685   1.403   1_545  A
C685        C686   1.394   1_565  A
C685        F692   1.359       .  S
C686        C687   1.409       .  A
C686        F691   1.358   1_545  S
C687        C688   1.416       .  A
C688        F689   1.358       .  S
C693        C694   1.411       .  A
C693        C698   1.408       .  A
C693        F700   1.357       .  S
C694        C695   1.398       .  A
C695        C696   1.389   1_565  A
C695        F702   1.359   1_565  S
C696        C697   1.417   1_545  A
C696        F701   1.359       .  S
C697        C698   1.407       .  A
C698        F699   1.357       .  S
C703        C704   1.417   1_565  A
C703       C1540   1.410       .  A
C703        F710   1.358       .  S
C704       C1537   1.400       .  A
C705       C1536   1.400       .  A
C705        C706   1.407   1_655  A
C705        F712   1.358       .  S
C706        C707   1.424   1_545  A
C706        F711   1.357       .  S
C707        C708   1.408       .  A
C708       C1535   1.410   1_455  A
C708        F709   1.357       .  S
C713        C714   1.406       .  A
C713        C718   1.390       .  A
C713        F720   1.357       .  S
C714        C715   1.406   1_545  A
C715        C716   1.389       .  A
C715        F722   1.358       .  S
C716        C717   1.400   1_565  A
C716        F721   1.359       .  S
C717        C718   1.399       .  A
C718        F719   1.359       .  S
C723        C724   1.405       .  A
C723       C1560   1.408       .  A
C723        F730   1.358       .  S
C724       C1557   1.418       .  A
C725       C1556   1.418   1_455  A
C725        C726   1.408       .  A
C725        F732   1.357   1_455  S
C726        C727   1.405       .  A
C726        F731   1.357       .  S
C727        C728   1.418       .  A
C728       C1555   1.408   1_455  A
C728        F729   1.357       .  S
C733        C734   1.405       .  A
C733        C738   1.408       .  A
C733        F740   1.357       .  S
C734        C735   1.415       .  A
C735        C736   1.388       .  A
C735        F742   1.356       .  S
C736        C737   1.394       .  A
C736        F741   1.359       .  S
C737        C738   1.412       .  A
C738        F739   1.358       .  S
C743        C744   1.410       .  A
C743        C748   1.394       .  A
C743        F750   1.358       .  S
C744        C745   1.416       .  A
C745        C746   1.404       .  A
C745        F752   1.357       .  S
C746        C747   1.400       .  A
C746        F751   1.358       .  S
C747        C748   1.404       .  A
C748        F749   1.359       .  S
C753        C758   1.410       .  A
C753        F760   1.357       .  S
C754        C755   1.420   1_556  A
C755        C756   1.408       .  A
C755        F762   1.358       .  S
C756        F761   1.356       .  S
C757        C758   1.415       .  A
C758        F759   1.358       .  S
C763       C1600   1.390       .  A
C763        F770   1.358       .  S
C764       C1597   1.404       .  A
C765       C1596   1.404   1_455  A
C765        C766   1.389       .  A
C765        F772   1.357       .  S
C766        F771   1.359       .  S
C767        C768   1.400       .  A
C768       C1595   1.390   1_455  A
C768        F769   1.359   1_455  S
C773        C774   1.415       .  A
C773        C778   1.406       .  A
C773        F780   1.358       .  S
C774        C775   1.402       .  A
C775        C776   1.403       .  A
C775        F782   1.358       .  S
C776        C777   1.420       .  A
C776        F781   1.358       .  S
C777        C778   1.406       .  A
C778        F779   1.357       .  S
C783        C788   1.399       .  A
C783        F790   1.358       .  S
C784        C785   1.412       .  A
C785        C786   1.404       .  A
C785        F792   1.358       .  S
C786        C787   1.405       .  A
C786        F791   1.358       .  S
C788        F789   1.358       .  S
C793       C1210   1.409       .  A
C793        C798   1.414   1_655  A
C793        F800   1.357       .  S
C794       C1209   1.409       .  A
C794        C795   1.426   1_566  A
C795       C1628   1.410       .  A
C795        F802   1.358       .  S
C796       C1627   1.410   1_455  A
C796        F801   1.358       .  S
C797        C798   1.418   1_545  A
C798        F799   1.358       .  S
C803        C808   1.390       .  A
C803        F810   1.358       .  S
C804        C805   1.400   1_556  A
C805        C806   1.390       .  A
C805        F812   1.359       .  S
C806        F811   1.357       .  S
C807        C808   1.405   1_545  A
C808        F809   1.358       .  S
C813        C814   1.415       .  A
C813        C818   1.395       .  A
C813        F820   1.359   1_565  S
C814        C815   1.403       .  A
C815        C816   1.405       .  A
C815        F822   1.357       .  S
C816        C817   1.410       .  A
C816        F821   1.358       .  S
C817        C818   1.397       .  A
C818        F819   1.358       .  S
C823        C824   1.402       .  A
C823        C828   1.406       .  A
C823        F830   1.357       .  S
C824        C825   1.406   1_545  A
C825        C826   1.393       .  A
C825        F832   1.359       .  S
C826        C827   1.409   1_565  A
C826        F831   1.358       .  S
C827        C828   1.415       .  A
C828        F829   1.357       .  S
O833       C1264   1.256   1_554  A
O833      Al1257   1.866   1_554  S
C834        O844   1.257       .  A
C834        O835   1.278       .  A
C834       C1193   1.500       .  S
O835       Al837   1.981       .  S
O836        C838   1.252       .  A
O836       Al837   1.865       .  S
Al837       O845   1.931       .  S
Al837       O847   2.013       .  S
Al837       O846   1.783       .  S
C838        O851   1.263   1_565  A
C838       C1240   1.477   1_565  S
O839        C849   1.259   1_545  A
O839       Al841   1.901   1_545  S
O840        C853   1.263       .  A
O840      Al1266   1.894   1_554  S
Al841      O1249   1.866       .  S
Al841      O1270   1.936       .  S
Al841       O851   1.943   1_565  S
Al841       O846   1.785       .  S
O842        C849   1.252       .  A
O842       Al850   1.858       .  S
O843       C1268   1.251       .  A
O843      Al1266   1.863       .  S
O844       Al850   1.862       .  S
O845        C852   1.266       .  A
O846       Al850   1.782       .  S
O847        C848   1.285       .  A
C848       O1249   1.256       .  A
C848       C1210   1.518       .  S
C849       C1220   1.437   1_565  S
Al850      O1256   1.894       .  S
Al850      O1259   1.863       .  S
C852       O1259   1.251       .  A
C852       C1203   1.473       .  S
C853        O854   1.270       .  A
C853       C1233   1.471       .  S
O854      Al1257   1.936   1_554  S
O855        C870   1.262       .  A
O855      Al1279   1.898       .  S
C856        O866   1.272       .  A
C856        O857   1.263       .  A
C856       C1140   1.504       .  S
O857      Al1275   1.922       .  S
O858        C860   1.249       .  A
O858      Al1275   1.849       .  S
Al859      O1273   1.922       .  S
Al859      O1274   1.849       .  S
Al859       O867   1.882       .  S
Al859       O869   1.914       .  S
Al859      O1284   1.782       .  S
C860        O873   1.262       .  A
C860       C1180   1.452       .  S
O861        C871   1.267       .  A
O861       Al863   1.939       .  S
O862        C875   1.285       .  A
O862       Al872   1.969       .  S
Al863      O1271   1.898   1_554  S
Al863       O876   1.891       .  S
Al863       O873   1.913       .  S
Al863       O868   1.786       .  S
O864        C871   1.255       .  A
O864       Al872   1.867       .  S
O865        C874   1.267       .  A
O865       Al872   1.942       .  S
O866       Al872   1.949       .  S
O867       C1290   1.256       .  A
O868      Al1275   1.782       .  S
O868       Al872   1.778       .  S
O869        C870   1.261       .  A
C870       C1160   1.490       .  S
C871       C1150   1.484       .  S
C874       O1283   1.256   1_554  A
C874       C1616   1.490   1_554  S
C875        O876   1.262       .  A
C875       C1173   1.496       .  S
O877        C892   1.256       .  A
O877       Al885   1.869       .  S
C878        O888   1.258       .  A
C878        O879   1.277       .  A
C878       C1190   1.492       .  S
O879       Al881   1.971       .  S
O880        C882   1.253       .  A
O880       Al881   1.867       .  S
Al881       O889   1.932       .  S
Al881       O891   1.990       .  S
Al881       O890   1.787       .  S
C882        O895   1.261   1_565  A
C882       C1100   1.467   1_565  S
O883        C893   1.257       .  A
O883       Al885   1.897       .  S
O884        C897   1.264       .  A
O884       Al894   1.899       .  S
Al885       O898   1.923       .  S
Al885       O895   1.925   1_565  S
Al885       O890   1.783       .  S
O886        C893   1.251       .  A
O886       Al894   1.855       .  S
O887        C896   1.250       .  A
O887       Al894   1.853       .  S
O888       Al894   1.867       .  S
O889        C896   1.266       .  A
O890       Al894   1.786       .  S
O891        C892   1.280       .  A
C892       C1123   1.511       .  S
C893       C1133   1.438   1_565  S
C896       C1090   1.476       .  S
C897        O898   1.269       .  A
C897       C1110   1.475       .  S
O899        C914   1.264       .  A
O899       Al907   1.905       .  S
C900        O910   1.272       .  A
C900        O901   1.262       .  A
C900       C1143   1.505       .  S
O901       Al903   1.921       .  S
O902        C904   1.248       .  A
O902       Al903   1.851       .  S
Al903       O911   1.876       .  S
Al903       O913   1.917       .  S
Al903       O912   1.782       .  S
C904        O917   1.264       .  A
C904       C1063   1.458       .  S
O905        C915   1.270       .  A
O905       Al907   1.944       .  S
O906        C919   1.285       .  A
O906       Al916   1.968       .  S
Al907       O920   1.897       .  S
Al907       O917   1.922       .  S
Al907       O912   1.782       .  S
O908        C915   1.256       .  A
O908       Al916   1.876       .  S
O909        C918   1.268       .  A
O909       Al916   1.943       .  S
O910       Al916   1.951       .  S
O911        C918   1.255       .  A
O912       Al916   1.776       .  S
O913        C914   1.262       .  A
C914       C1070   1.492       .  S
C915       C1083   1.488       .  S
C918       C1093   1.489       .  S
C919        O920   1.263       .  A
C919       C1050   1.503       .  S
O921        C936   1.257       .  A
O921       Al929   1.871       .  S
C922        O932   1.255       .  A
C922        O923   1.279       .  A
C922       C1033   1.497       .  S
O923       Al925   1.985       .  S
O924        C926   1.254       .  A
O924       Al925   1.869       .  S
Al925       O933   1.926       .  S
Al925       O935   2.002       .  S
Al925       O934   1.783       .  S
C926        O939   1.263       .  A
C926       C1163   1.472       .  S
O927        C937   1.258       .  A
O927       Al929   1.898       .  S
O928        C941   1.261       .  A
O928       Al938   1.888       .  S
Al929       O942   1.932       .  S
Al929       O939   1.936       .  S
Al929       O934   1.782       .  S
O930        C937   1.253       .  A
O930       Al938   1.861       .  S
O931        C940   1.252       .  A
O931       Al938   1.863       .  S
O932       Al938   1.853       .  S
O933        C940   1.266       .  A
O934       Al938   1.781       .  S
O935        C936   1.282       .  A
C936       C1053   1.515       .  S
C937       C1060   1.438       .  S
C940       C1040   1.474       .  S
C941        O942   1.270       .  A
C941       C1153   1.471       .  S
O943        C958   1.261       .  A
O943       Al951   1.894       .  S
C944        O954   1.273       .  A
C944        O945   1.264       .  A
C944       C1023   1.504       .  S
O945       Al947   1.922       .  S
O946        C948   1.249       .  A
O946       Al947   1.851       .  S
Al947       O955   1.881       .  S
Al947       O957   1.920       .  S
Al947       O956   1.783       .  S
C948        O961   1.262       .  A
C948       C1130   1.457       .  S
O949        C959   1.267       .  A
O949       Al951   1.937       .  S
O950        C963   1.284       .  A
O950       Al960   1.964       .  S
Al951       O964   1.896       .  S
Al951       O961   1.913       .  S
Al951       O956   1.779       .  S
O952        C959   1.255       .  A
O952       Al960   1.880       .  S
O953        C962   1.265       .  A
O953       Al960   1.934       .  S
O954       Al960   1.949       .  S
O955        C962   1.255       .  A
O956       Al960   1.777       .  S
O957        C958   1.262       .  A
C958       C1243   1.490       .  S
C959       C1230   1.482   1_545  S
C962       C1043   1.489       .  S
C963        O964   1.264       .  A
C963       C1120   1.497       .  S
O965        C980   1.262       .  A
O965      Al1389   1.896       .  S
C966        O976   1.274       .  A
C966        O967   1.261       .  A
C966       C1020   1.504       .  S
O967      Al1385   1.916       .  S
O968        C970   1.248       .  A
O968      Al1385   1.850       .  S
Al969      O1383   1.916       .  S
Al969      O1384   1.850       .  S
Al969       O977   1.880       .  S
Al969       O979   1.909       .  S
Al969      O1394   1.783       .  S
C970        O983   1.263       .  A
C970       C1223   1.455       .  S
O971        C981   1.268       .  A
O971       Al973   1.941       .  S
O972        C985   1.287       .  A
O972       Al982   1.976       .  S
Al973      O1381   1.896   1_554  S
Al973       O986   1.895       .  S
Al973       O983   1.918       .  S
Al973       O978   1.785       .  S
O974        C981   1.254       .  A
O974       Al982   1.865       .  S
O975        C984   1.267       .  A
O975       Al982   1.940       .  S
O976       Al982   1.959       .  S
O977       C1400   1.256       .  A
O978      Al1385   1.783       .  S
O978       Al982   1.774       .  S
O979        C980   1.260       .  A
C980       C1103   1.486       .  S
C981       C1113   1.489   1_545  S
C984       O1393   1.256   1_554  A
C984       C1429   1.491   1_554  S
C985        O986   1.263       .  A
C985       C1213   1.504   1_554  S
O987       C1418   1.258   1_554  A
O987      Al1411   1.872   1_554  S
C988        O998   1.257       .  A
C988        O989   1.276       .  A
C988       C1030   1.493       .  S
O989       Al991   1.969       .  S
O990        C992   1.253       .  A
O990       Al991   1.874       .  S
Al991       O999   1.927       .  S
Al991      O1001   1.987       .  S
Al991      O1000   1.789       .  S
C992       O1005   1.262       .  A
C992       C1073   1.475       .  S
O993       C1003   1.258       .  A
O993       Al995   1.899       .  S
O994       C1007   1.263       .  A
O994      Al1420   1.898   1_554  S
Al995      O1403   1.872       .  S
Al995      O1424   1.933       .  S
Al995      O1005   1.935       .  S
Al995      O1000   1.787       .  S
O996       C1003   1.251       .  A
O996      Al1004   1.853       .  S
O997       C1422   1.250       .  A
O997      Al1420   1.855       .  S
O998      Al1004   1.865       .  S
O999       C1006   1.264       .  A
O1000     Al1004   1.789       .  S
O1001      C1002   1.280       .  A
C1002      O1403   1.258       .  A
C1002      C1170   1.509       .  S
C1003      C1183   1.436       .  S
Al1004     O1410   1.898       .  S
Al1004     O1413   1.856       .  S
C1006      O1413   1.250       .  A
C1006      C1010   1.472       .  S
C1007      O1008   1.269       .  A
C1007      C1080   1.476       .  S
O1008     Al1411   1.933   1_554  S
C1009      C1426   1.405   1_554  A
C1009      C1014   1.396       .  A
C1009      F1016   1.359       .  S
C1010      C1425   1.405       .  A
C1010      C1011   1.403       .  A
C1011      C1012   1.404       .  A
C1011      F1018   1.358       .  S
C1012      C1013   1.415       .  A
C1012      F1017   1.358       .  S
C1013      C1400   1.491       .  S
C1013      C1430   1.411       .  A
C1014      C1429   1.411   1_554  A
C1014      F1015   1.358       .  S
C1019      C1020   1.419       .  A
C1019      C1024   1.407       .  A
C1019      F1026   1.357       .  S
C1020      C1021   1.404       .  A
C1021      C1022   1.409       .  A
C1021      F1028   1.357       .  S
C1022      C1023   1.418       .  A
C1022      F1027   1.357       .  S
C1023      C1024   1.404       .  A
C1024      F1025   1.358       .  S
C1029      C1030   1.402       .  A
C1029      C1034   1.401       .  A
C1029      F1036   1.358       .  S
C1030      C1031   1.417       .  A
C1031      F1038   1.358       .  S
C1032      C1033   1.404       .  A
C1032      F1037   1.357       .  S
C1034      F1035   1.358       .  S
C1039      C1040   1.407       .  A
C1039      C1044   1.395       .  A
C1039      F1046   1.359       .  S
C1040      C1041   1.402       .  A
C1041      C1042   1.403       .  A
C1041      F1048   1.358       .  S
C1042      C1043   1.416       .  A
C1042      F1047   1.358       .  S
C1043      C1044   1.409       .  A
C1044      F1045   1.358       .  S
C1049      C1050   1.418       .  A
C1049      C1054   1.411       .  A
C1049      F1056   1.358       .  S
C1050      C1051   1.402       .  A
C1051      C1052   1.409       .  A
C1051      F1058   1.358       .  S
C1052      C1053   1.425       .  A
C1052      F1057   1.358       .  S
C1053      C1054   1.408       .  A
C1054      F1055   1.357       .  S
C1059      C1060   1.398       .  A
C1059      F1066   1.359       .  S
C1061      C1062   1.390       .  A
C1061      F1068   1.358       .  S
C1062      C1063   1.406       .  A
C1062      F1067   1.358       .  S
C1063      C1064   1.407       .  A
C1064      F1065   1.356       .  S
C1069      C1070   1.408       .  A
C1069      C1074   1.396       .  A
C1069      F1076   1.358       .  S
C1070      C1071   1.417       .  A
C1071      C1072   1.405       .  A
C1071      F1078   1.358       .  S
C1072      C1073   1.401       .  A
C1072      F1077   1.358       .  S
C1073      C1074   1.404       .  A
C1074      F1075   1.358       .  S
C1079      C1080   1.412       .  A
C1079      C1084   1.409       .  A
C1079      F1086   1.357       .  S
C1080      C1081   1.397       .  A
C1081      C1082   1.394       .  A
C1081      F1088   1.358       .  S
C1082      C1083   1.416       .  A
C1082      F1087   1.359       .  S
C1083      C1084   1.405       .  A
C1084      F1085   1.357       .  S
C1089      C1090   1.402       .  A
C1089      C1094   1.403       .  A
C1089      F1096   1.358       .  S
C1090      C1091   1.409       .  A
C1091      C1092   1.394       .  A
C1091      F1098   1.359       .  S
C1092      C1093   1.407       .  A
C1092      F1097   1.358       .  S
C1093      C1094   1.417       .  A
C1094      F1095   1.358       .  S
C1099      C1100   1.399       .  A
C1099      C1104   1.401       .  A
C1099      F1106   1.358       .  S
C1100      C1101   1.403   1_545  A
C1101      C1102   1.394   1_565  A
C1101      F1108   1.359       .  S
C1102      C1103   1.409       .  A
C1102      F1107   1.358   1_545  S
C1103      C1104   1.416       .  A
C1104      F1105   1.358       .  S
C1109      C1110   1.411       .  A
C1109      C1114   1.408       .  A
C1109      F1116   1.357       .  S
C1110      C1111   1.398       .  A
C1111      C1112   1.389   1_565  A
C1111      F1118   1.359   1_565  S
C1112      C1113   1.417   1_545  A
C1112      F1117   1.359       .  S
C1113      C1114   1.407       .  A
C1114      F1115   1.357       .  S
C1119      C1120   1.417   1_565  A
C1119      F1126   1.358       .  S
C1121      C1122   1.407       .  A
C1121      F1128   1.358       .  S
C1122      C1123   1.424   1_545  A
C1122      F1127   1.357       .  S
C1123      C1124   1.408       .  A
C1124      F1125   1.357       .  S
C1129      C1130   1.406       .  A
C1129      C1134   1.390       .  A
C1129      F1136   1.357       .  S
C1130      C1131   1.406   1_545  A
C1131      C1132   1.389       .  A
C1131      F1138   1.358       .  S
C1132      C1133   1.400   1_565  A
C1132      F1137   1.359       .  S
C1133      C1134   1.399       .  A
C1134      F1135   1.359       .  S
C1139      C1140   1.405       .  A
C1139      F1146   1.358       .  S
C1141      C1142   1.408       .  A
C1141      F1148   1.357       .  S
C1142      C1143   1.405       .  A
C1142      F1147   1.357       .  S
C1143      C1144   1.418       .  A
C1144      F1145   1.357       .  S
C1149      C1150   1.405       .  A
C1149      C1154   1.408       .  A
C1149      F1156   1.357       .  S
C1150      C1151   1.415       .  A
C1151      C1152   1.388       .  A
C1151      F1158   1.356       .  S
C1152      C1153   1.395       .  A
C1152      F1157   1.359       .  S
C1153      C1154   1.412       .  A
C1154      F1155   1.358       .  S
C1159      C1160   1.410       .  A
C1159      C1164   1.394       .  A
C1159      F1166   1.358       .  S
C1160      C1161   1.416       .  A
C1161      C1162   1.404       .  A
C1161      F1168   1.357       .  S
C1162      C1163   1.400       .  A
C1162      F1167   1.358       .  S
C1163      C1164   1.404       .  A
C1164      F1165   1.359       .  S
C1169      C1586   1.409       .  A
C1169      C1174   1.410       .  A
C1169      F1176   1.357       .  S
C1170      C1585   1.409       .  A
C1170      C1171   1.420       .  A
C1171      C1172   1.408       .  A
C1171      F1178   1.358       .  S
C1172      C1589   1.403       .  A
C1172      F1177   1.356       .  S
C1173      C1588   1.403       .  A
C1173      C1174   1.415   1_554  A
C1174      F1175   1.358       .  S
C1179      C1596   1.405       .  A
C1179      F1186   1.358       .  S
C1180      C1595   1.405   1_554  A
C1181      C1182   1.389       .  A
C1181      F1188   1.357       .  S
C1182      C1599   1.400   1_554  A
C1182      F1187   1.359       .  S
C1183      C1598   1.400       .  A
C1183      C1184   1.400       .  A
C1184      F1185   1.359       .  S
C1189      C1190   1.415       .  A
C1189      C1194   1.406       .  A
C1189      F1196   1.358       .  S
C1190      C1191   1.402       .  A
C1191      C1192   1.403       .  A
C1191      F1198   1.358       .  S
C1192      C1193   1.420       .  A
C1192      F1197   1.358       .  S
C1193      C1194   1.406       .  A
C1194      F1195   1.357       .  S
C1199      C1616   1.411   1_554  A
C1199      C1204   1.399       .  A
C1199      F1206   1.358       .  S
C1200      C1290   1.490       .  S
C1200      C1615   1.411       .  A
C1200      C1201   1.412       .  A
C1201      C1202   1.404       .  A
C1201      F1208   1.358       .  S
C1202      C1203   1.405       .  A
C1202      F1207   1.358       .  S
C1203      C1620   1.405       .  A
C1204      C1619   1.405   1_554  A
C1204      F1205   1.358       .  S
C1209      C1214   1.414       .  A
C1209      F1216   1.357       .  S
C1210      C1211   1.426   1_565  A
C1211      F1218   1.358       .  S
C1212      C1629   1.401       .  A
C1212      F1217   1.358       .  S
C1213      C1628   1.401   1_556  A
C1213      C1214   1.419   1_545  A
C1214      F1215   1.358       .  S
C1219      C1636   1.400   1_565  A
C1219      C1224   1.390       .  A
C1219      F1226   1.358       .  S
C1220      C1635   1.400   1_545  A
C1220      C1221   1.400       .  A
C1221      C1222   1.390       .  A
C1221      F1228   1.359       .  S
C1222      C1639   1.405       .  A
C1222      F1227   1.357       .  S
C1223      C1638   1.405       .  A
C1223      C1224   1.405   1_544  A
C1224      F1225   1.358       .  S
C1229      C1230   1.415       .  A
C1229      C1234   1.395       .  A
C1229      F1236   1.359   1_565  S
C1230      C1231   1.403       .  A
C1231      C1232   1.405       .  A
C1231      F1238   1.357       .  S
C1232      C1233   1.410       .  A
C1232      F1237   1.358       .  S
C1233      C1234   1.397       .  A
C1234      F1235   1.358       .  S
C1239      C1240   1.402       .  A
C1239      C1244   1.406       .  A
C1239      F1246   1.357       .  S
C1240      C1241   1.406   1_545  A
C1241      C1242   1.393       .  A
C1241      F1248   1.359       .  S
C1242      C1243   1.409   1_565  A
C1242      F1247   1.358       .  S
C1243      C1244   1.415       .  A
C1244      F1245   1.357       .  S
C1250      O1260   1.257       .  A
C1250      O1251   1.278       .  A
C1250      C1609   1.500       .  S
O1251     Al1253   1.981       .  S
O1252      C1254   1.252       .  A
O1252     Al1253   1.865       .  S
Al1253     O1261   1.931       .  S
Al1253     O1263   2.013       .  S
Al1253     O1262   1.783       .  S
C1254      O1267   1.263   1_565  A
C1254      C1656   1.477   1_565  S
O1255      C1265   1.259   1_545  A
O1255     Al1257   1.901   1_545  S
O1256      C1269   1.263       .  A
Al1257     O1267   1.943   1_565  S
Al1257     O1262   1.785       .  S
O1258      C1265   1.252       .  A
O1258     Al1266   1.858       .  S
O1260     Al1266   1.862       .  S
O1261      C1268   1.266       .  A
O1262     Al1266   1.782       .  S
O1263      C1264   1.285       .  A
C1264      C1626   1.518       .  S
C1265      C1636   1.437   1_565  S
C1268      C1619   1.473       .  S
C1269      O1270   1.270       .  A
C1269      C1649   1.471       .  S
O1271      C1286   1.262       .  A
C1272      O1282   1.272       .  A
C1272      O1273   1.263       .  A
C1272      C1556   1.504       .  S
O1274      C1276   1.249       .  A
Al1275     O1283   1.882   1_554  S
Al1275     O1285   1.914   1_554  S
C1276      O1289   1.262       .  A
C1276      C1596   1.452       .  S
O1277      C1287   1.267       .  A
O1277     Al1279   1.939       .  S
O1278      C1291   1.285       .  A
O1278     Al1288   1.969       .  S
Al1279     O1292   1.891       .  S
Al1279     O1289   1.913       .  S
Al1279     O1284   1.786       .  S
O1280      C1287   1.255       .  A
O1280     Al1288   1.867       .  S
O1281      C1290   1.267       .  A
O1281     Al1288   1.942       .  S
O1282     Al1288   1.949       .  S
O1284     Al1288   1.778       .  S
O1285      C1286   1.261       .  A
C1286      C1576   1.490       .  S
C1287      C1566   1.484       .  S
C1291      O1292   1.262       .  A
C1291      C1589   1.496       .  S
O1293      C1308   1.256       .  A
O1293     Al1301   1.869       .  S
C1294      O1304   1.258       .  A
C1294      O1295   1.277       .  A
C1294      C1606   1.492       .  S
O1295     Al1297   1.971       .  S
O1296      C1298   1.253       .  A
O1296     Al1297   1.867       .  S
Al1297     O1305   1.932       .  S
Al1297     O1307   1.990       .  S
Al1297     O1306   1.787       .  S
C1298      O1311   1.261   1_565  A
C1298      C1516   1.467   1_565  S
O1299      C1309   1.257       .  A
O1299     Al1301   1.897       .  S
O1300      C1313   1.264       .  A
O1300     Al1310   1.899       .  S
Al1301     O1314   1.922       .  S
Al1301     O1311   1.925   1_565  S
Al1301     O1306   1.783       .  S
O1302      C1309   1.251       .  A
O1302     Al1310   1.855       .  S
O1303      C1312   1.250       .  A
O1303     Al1310   1.853       .  S
O1304     Al1310   1.867       .  S
O1305      C1312   1.266       .  A
O1306     Al1310   1.786       .  S
O1307      C1308   1.280       .  A
C1308      C1539   1.511       .  S
C1309      C1549   1.438   1_565  S
C1312      C1506   1.476       .  S
C1313      O1314   1.269       .  A
C1313      C1526   1.475       .  S
O1315      C1330   1.264       .  A
O1315     Al1323   1.905       .  S
C1316      O1326   1.272       .  A
C1316      O1317   1.262       .  A
C1316      C1559   1.505       .  S
O1317     Al1319   1.921       .  S
O1318      C1320   1.248       .  A
O1318     Al1319   1.851       .  S
Al1319     O1327   1.876       .  S
Al1319     O1329   1.917       .  S
Al1319     O1328   1.782       .  S
C1320      O1333   1.264       .  A
C1320      C1479   1.458       .  S
O1321      C1331   1.270       .  A
O1321     Al1323   1.944       .  S
O1322      C1335   1.285       .  A
O1322     Al1332   1.968       .  S
Al1323     O1336   1.897       .  S
Al1323     O1333   1.922       .  S
Al1323     O1328   1.782       .  S
O1324      C1331   1.256       .  A
O1324     Al1332   1.876       .  S
O1325      C1334   1.268       .  A
O1325     Al1332   1.943       .  S
O1326     Al1332   1.951       .  S
O1327      C1334   1.255       .  A
O1328     Al1332   1.776       .  S
O1329      C1330   1.262       .  A
C1330      C1486   1.492       .  S
C1331      C1499   1.488       .  S
C1334      C1509   1.489       .  S
C1335      O1336   1.263       .  A
C1335      C1466   1.503       .  S
O1337      C1352   1.257       .  A
O1337     Al1345   1.871       .  S
C1338      O1348   1.255       .  A
C1338      O1339   1.279       .  A
C1338      C1449   1.497       .  S
O1339     Al1341   1.985       .  S
O1340      C1342   1.254       .  A
O1340     Al1341   1.869       .  S
Al1341     O1349   1.926       .  S
Al1341     O1351   2.002       .  S
Al1341     O1350   1.783       .  S
C1342      O1355   1.263       .  A
C1342      C1579   1.472       .  S
O1343      C1353   1.258       .  A
O1343     Al1345   1.898       .  S
O1344      C1357   1.261       .  A
O1344     Al1354   1.888       .  S
Al1345     O1358   1.932       .  S
Al1345     O1355   1.936       .  S
Al1345     O1350   1.782       .  S
O1346      C1353   1.253       .  A
O1346     Al1354   1.860       .  S
O1347      C1356   1.252       .  A
O1347     Al1354   1.863       .  S
O1348     Al1354   1.853       .  S
O1349      C1356   1.266       .  A
O1350     Al1354   1.781       .  S
O1351      C1352   1.282       .  A
C1352      C1469   1.515       .  S
C1353      C1476   1.438       .  S
C1356      C1456   1.474       .  S
C1357      O1358   1.270       .  A
C1357      C1569   1.471       .  S
O1359      C1374   1.261       .  A
O1359     Al1367   1.894       .  S
C1360      O1370   1.273       .  A
C1360      O1361   1.264       .  A
C1360      C1439   1.504       .  S
O1361     Al1363   1.922       .  S
O1362      C1364   1.249       .  A
O1362     Al1363   1.851       .  S
Al1363     O1371   1.881       .  S
Al1363     O1373   1.920       .  S
Al1363     O1372   1.783       .  S
C1364      O1377   1.262       .  A
C1364      C1546   1.457       .  S
O1365      C1375   1.267       .  A
O1365     Al1367   1.937       .  S
O1366      C1379   1.284       .  A
O1366     Al1376   1.964       .  S
Al1367     O1380   1.896       .  S
Al1367     O1377   1.913       .  S
Al1367     O1372   1.779       .  S
O1368      C1375   1.255       .  A
O1368     Al1376   1.880       .  S
O1369      C1378   1.265       .  A
O1369     Al1376   1.933       .  S
O1370     Al1376   1.949       .  S
O1371      C1378   1.255       .  A
O1372     Al1376   1.777       .  S
O1373      C1374   1.262       .  A
C1374      C1659   1.490       .  S
C1375      C1646   1.482   1_545  S
C1378      C1459   1.489       .  S
C1379      O1380   1.264       .  A
C1379      C1536   1.497       .  S
O1381      C1396   1.262       .  A
C1382      O1392   1.274       .  A
C1382      O1383   1.261       .  A
C1382      C1436   1.504       .  S
O1384      C1386   1.248       .  A
Al1385     O1393   1.880   1_554  S
Al1385     O1395   1.909   1_554  S
C1386      O1399   1.263       .  A
C1386      C1639   1.455       .  S
O1387      C1397   1.268       .  A
O1387     Al1389   1.941       .  S
O1388      C1401   1.287       .  A
O1388     Al1398   1.976       .  S
Al1389     O1402   1.895       .  S
Al1389     O1399   1.918       .  S
Al1389     O1394   1.785       .  S
O1390      C1397   1.254       .  A
O1390     Al1398   1.865       .  S
O1391      C1400   1.267       .  A
O1391     Al1398   1.940       .  S
O1392     Al1398   1.959       .  S
O1394     Al1398   1.774       .  S
O1395      C1396   1.260       .  A
C1396      C1519   1.486       .  S
C1397      C1529   1.489   1_545  S
C1401      O1402   1.263       .  A
C1401      C1629   1.504       .  S
C1404      O1414   1.257       .  A
C1404      O1405   1.276       .  A
C1404      C1446   1.493       .  S
O1405     Al1407   1.969       .  S
O1406      C1408   1.253       .  A
O1406     Al1407   1.874       .  S
Al1407     O1415   1.927       .  S
Al1407     O1417   1.987       .  S
Al1407     O1416   1.789       .  S
C1408      O1421   1.262       .  A
C1408      C1489   1.475       .  S
O1409      C1419   1.258       .  A
O1409     Al1411   1.899       .  S
O1410      C1423   1.263       .  A
Al1411     O1421   1.935       .  S
Al1411     O1416   1.787       .  S
O1412      C1419   1.251       .  A
O1412     Al1420   1.853       .  S
O1414     Al1420   1.865       .  S
O1415      C1422   1.264       .  A
O1416     Al1420   1.789       .  S
O1417      C1418   1.280       .  A
C1418      C1586   1.509       .  S
C1419      C1599   1.436       .  S
C1422      C1426   1.472       .  S
C1423      O1424   1.269       .  A
C1423      C1496   1.476       .  S
C1425      C1430   1.396       .  A
C1425      F1432   1.359       .  S
C1426      C1427   1.403       .  A
C1427      C1428   1.404       .  A
C1427      F1434   1.358       .  S
C1428      C1429   1.415       .  A
C1428      F1433   1.358       .  S
C1430      F1431   1.358       .  S
C1435      C1436   1.419       .  A
C1435      C1440   1.407       .  A
C1435      F1442   1.357       .  S
C1436      C1437   1.404       .  A
C1437      C1438   1.409       .  A
C1437      F1444   1.357       .  S
C1438      C1439   1.418       .  A
C1438      F1443   1.357       .  S
C1439      C1440   1.404       .  A
C1440      F1441   1.358       .  S
C1445      C1446   1.402       .  A
C1445      C1450   1.401       .  A
C1445      F1452   1.358       .  S
C1446      C1447   1.417       .  A
C1447      F1454   1.358       .  S
C1448      C1449   1.404       .  A
C1448      F1453   1.357       .  S
C1450      F1451   1.358       .  S
C1455      C1456   1.407       .  A
C1455      C1460   1.395       .  A
C1455      F1462   1.359       .  S
C1456      C1457   1.402       .  A
C1457      C1458   1.403       .  A
C1457      F1464   1.358       .  S
C1458      C1459   1.416       .  A
C1458      F1463   1.358       .  S
C1459      C1460   1.409       .  A
C1460      F1461   1.358       .  S
C1465      C1466   1.418       .  A
C1465      C1470   1.411       .  A
C1465      F1472   1.358       .  S
C1466      C1467   1.402       .  A
C1467      C1468   1.409       .  A
C1467      F1474   1.358       .  S
C1468      C1469   1.425       .  A
C1468      F1473   1.358       .  S
C1469      C1470   1.408       .  A
C1470      F1471   1.357       .  S
C1475      C1476   1.398       .  A
C1475      F1482   1.359       .  S
C1477      C1478   1.390       .  A
C1477      F1484   1.358       .  S
C1478      C1479   1.406       .  A
C1478      F1483   1.358       .  S
C1479      C1480   1.407       .  A
C1480      F1481   1.356       .  S
C1485      C1486   1.408       .  A
C1485      C1490   1.396       .  A
C1485      F1492   1.358       .  S
C1486      C1487   1.417       .  A
C1487      C1488   1.405       .  A
C1487      F1494   1.358       .  S
C1488      C1489   1.401       .  A
C1488      F1493   1.358       .  S
C1489      C1490   1.404       .  A
C1490      F1491   1.358       .  S
C1495      C1496   1.412       .  A
C1495      C1500   1.409       .  A
C1495      F1502   1.357       .  S
C1496      C1497   1.397       .  A
C1497      C1498   1.394       .  A
C1497      F1504   1.358       .  S
C1498      C1499   1.416       .  A
C1498      F1503   1.359       .  S
C1499      C1500   1.405       .  A
C1500      F1501   1.357       .  S
C1505      C1506   1.402       .  A
C1505      C1510   1.403       .  A
C1505      F1512   1.358       .  S
C1506      C1507   1.409       .  A
C1507      C1508   1.394       .  A
C1507      F1514   1.359       .  S
C1508      C1509   1.407       .  A
C1508      F1513   1.358       .  S
C1509      C1510   1.417       .  A
C1510      F1511   1.358       .  S
C1515      C1516   1.399       .  A
C1515      C1520   1.401       .  A
C1515      F1522   1.358       .  S
C1516      C1517   1.403   1_545  A
C1517      C1518   1.394   1_565  A
C1517      F1524   1.359       .  S
C1518      C1519   1.409       .  A
C1518      F1523   1.358   1_545  S
C1519      C1520   1.416       .  A
C1520      F1521   1.358       .  S
C1525      C1526   1.411       .  A
C1525      C1530   1.408       .  A
C1525      F1532   1.357       .  S
C1526      C1527   1.398       .  A
C1527      C1528   1.389   1_565  A
C1527      F1534   1.359   1_565  S
C1528      C1529   1.417   1_545  A
C1528      F1533   1.359       .  S
C1529      C1530   1.407       .  A
C1530      F1531   1.357       .  S
C1535      C1536   1.417   1_565  A
C1535      F1542   1.358       .  S
C1537      C1538   1.407       .  A
C1537      F1544   1.358       .  S
C1538      C1539   1.424   1_545  A
C1538      F1543   1.357       .  S
C1539      C1540   1.408       .  A
C1540      F1541   1.357       .  S
C1545      C1546   1.406       .  A
C1545      C1550   1.390       .  A
C1545      F1552   1.357       .  S
C1546      C1547   1.406   1_545  A
C1547      C1548   1.389       .  A
C1547      F1554   1.358       .  S
C1548      C1549   1.400   1_565  A
C1548      F1553   1.359       .  S
C1549      C1550   1.399       .  A
C1550      F1551   1.359       .  S
C1555      C1556   1.405       .  A
C1555      F1562   1.358       .  S
C1557      C1558   1.408       .  A
C1557      F1564   1.357       .  S
C1558      C1559   1.405       .  A
C1558      F1563   1.357       .  S
C1559      C1560   1.418       .  A
C1560      F1561   1.357       .  S
C1565      C1566   1.405       .  A
C1565      C1570   1.408       .  A
C1565      F1572   1.357       .  S
C1566      C1567   1.415       .  A
C1567      C1568   1.388       .  A
C1567      F1574   1.356       .  S
C1568      C1569   1.394       .  A
C1568      F1573   1.359       .  S
C1569      C1570   1.412       .  A
C1570      F1571   1.358       .  S
C1575      C1576   1.410       .  A
C1575      C1580   1.394       .  A
C1575      F1582   1.358       .  S
C1576      C1577   1.416       .  A
C1577      C1578   1.404       .  A
C1577      F1584   1.357       .  S
C1578      C1579   1.400       .  A
C1578      F1583   1.358       .  S
C1579      C1580   1.404       .  A
C1580      F1581   1.359       .  S
C1585      C1590   1.410       .  A
C1585      F1592   1.357       .  S
C1586      C1587   1.420   1_556  A
C1587      C1588   1.408       .  A
C1587      F1594   1.358       .  S
C1588      F1593   1.356       .  S
C1589      C1590   1.415       .  A
C1590      F1591   1.358       .  S
C1595      F1602   1.358       .  S
C1597      C1598   1.389       .  A
C1597      F1604   1.357       .  S
C1598      F1603   1.359       .  S
C1599      C1600   1.400       .  A
C1600      F1601   1.359       .  S
C1605      C1606   1.415       .  A
C1605      C1610   1.406       .  A
C1605      F1612   1.358       .  S
C1606      C1607   1.402       .  A
C1607      C1608   1.403       .  A
C1607      F1614   1.358       .  S
C1608      C1609   1.420       .  A
C1608      F1613   1.358       .  S
C1609      C1610   1.406       .  A
C1610      F1611   1.357       .  S
C1615      C1620   1.399       .  A
C1615      F1622   1.358       .  S
C1616      C1617   1.412       .  A
C1617      C1618   1.404       .  A
C1617      F1624   1.358       .  S
C1618      C1619   1.405       .  A
C1618      F1623   1.358       .  S
C1620      F1621   1.358       .  S
C1625      C1630   1.414       .  A
C1625      F1632   1.357       .  S
C1626      C1627   1.426   1_566  A
C1627      F1634   1.358       .  S
C1628      F1633   1.358       .  S
C1629      C1630   1.418   1_545  A
C1630      F1631   1.358       .  S
C1635      C1640   1.390       .  A
C1635      F1642   1.358       .  S
C1636      C1637   1.400   1_556  A
C1637      C1638   1.390       .  A
C1637      F1644   1.359       .  S
C1638      F1643   1.357       .  S
C1639      C1640   1.405   1_545  A
C1640      F1641   1.358       .  S
C1645      C1646   1.415       .  A
C1645      C1650   1.395       .  A
C1645      F1652   1.359   1_565  S
C1646      C1647   1.403       .  A
C1647      C1648   1.405       .  A
C1647      F1654   1.357       .  S
C1648      C1649   1.410       .  A
C1648      F1653   1.358       .  S
C1649      C1650   1.397       .  A
C1650      F1651   1.358       .  S
C1655      C1656   1.402       .  A
C1655      C1660   1.406       .  A
C1655      F1662   1.357       .  S
C1656      C1657   1.406   1_545  A
C1657      C1658   1.393       .  A
C1657      F1664   1.359       .  S
C1658      C1659   1.409   1_565  A
C1658      F1663   1.358       .  S
C1659      C1660   1.415       .  A
C1660      F1661   1.357       .  S
