geometry optimzed in LAMMPS
_audit_creation_date              2020-12-01 
_audit_creation_method            'lammps2cif' 
_symmetry_space_group_name_H-M    'P1' 
_symmetry_Int_Tables_number       1 
_symmetry_cell_setting            triclinic 
loop_ 
_symmetry_equiv_pos_as_xyz 
  x,y,z 
_cell_length_a                    38.3584505 
_cell_length_b                    41.89320355754862 
_cell_length_c                    34.81414534225451 
_cell_angle_alpha                 90.23498327100667 
_cell_angle_beta                  89.88874502193526 
_cell_angle_gamma                 90.23459079556217 
loop_ 
_atom_site_label 
_atom_site_type_symbol 
_atom_site_fract_x 
_atom_site_fract_y 
_atom_site_fract_z 
_atom_site_charge 
O1          O  0.01997337  0.13999041  0.93896237    -0.81000
C2          C  0.09782373  0.04568121  0.86841353     0.98400
O3          O  0.06534440  0.04807983  0.86170377    -0.70100
O4          O  0.04782846  0.04915088  0.93205030    -0.73700
Al5        Al  0.03402807  0.07474480  0.89196613     1.49000
C6          C  0.04140946  0.05654782  0.96606046     0.93600
O7          O  0.10714316  0.10652630  0.96333036    -0.79900
O8          O  0.08578504  0.15478003  0.86817858    -0.73500
Al9        Al  0.06388651  0.12266182  0.94913967     1.90100
O10         O  0.13479717  0.12185382  0.91124359    -0.72500
O11         O  0.07052101  0.10557389  0.82498456    -0.72400
O12         O  0.11563670  0.07056007  0.87320317    -0.78000
O13         O  0.01854679  0.09837072  0.84999081    -0.76200
O14         O  0.06557698  0.10358691  0.90402006    -1.12400
O15         O  0.49633971  0.09662403  0.92157563    -0.71600
C16         C  0.49423422  0.12350635  0.93870377     0.99200
C17         C  0.13470393  0.11510148  0.94693799     0.95600
Al18       Al  0.09934334  0.11240120  0.87134784     1.55600
O19         O  0.04338784  0.08564889  0.97684439    -0.76200
C20         C  0.03732297  0.10543149  0.82159642     0.99700
C21         C  0.08940146  0.17342347  0.89619522     0.94600
O22         O  0.08416759  0.16334648  0.93035914    -0.81500
O23         O  0.41727070  0.34933076  0.06057479    -0.81000
C24         C  0.40323853  0.46537301  0.12779027     0.98400
O25         O  0.38575670  0.44050274  0.12180000    -0.70100
O26         O  0.36702002  0.39059501  0.08088556    -0.73700
Al27       Al  0.40206049  0.39864433  0.12184067     1.49000
C28         C  0.36758962  0.39773547  0.04522830     0.93600
O29         O  0.46026644  0.42775181  0.01782634    -0.79900
O30         O  0.00721080  0.41808656  0.07385464    -0.73500
Al31       Al  0.43836293  0.39023002  0.04405061     1.90100
O32         O  0.45329257  0.46316365  0.06323140    -0.72500
O33         O  0.48276973  0.41313712  0.14406123    -0.72400
O34         O  0.43585289  0.46320013  0.13359822    -0.78000
O35         O  0.43105443  0.40434253  0.16890013    -0.76200
O36         O  0.43597646  0.40828667  0.08979196    -1.12400
O37         O  0.41493288  0.35581945  0.12323055    -0.71600
C38         C  0.41119439  0.33834232  0.09407303     0.99200
C39         C  0.46196108  0.45662790  0.02963092     0.95600
Al40       Al  0.46726950  0.43706141  0.10277912     1.55600
O41         O  0.39531629  0.40689229  0.02944396    -0.76200
C42         C  0.46428998  0.40596304  0.17252967     0.99700
C43         C  0.00981519  0.39051396  0.05836262     0.94600
O44         O  0.48159711  0.37229038  0.05542260    -0.81500
O45         O  0.17026555  0.41286166  0.93175438    -0.81000
C46         C  0.15350858  0.29606603  0.86728711     0.98400
O47         O  0.13586164  0.32043689  0.87443662    -0.70100
O48         O  0.11834728  0.37027243  0.91472762    -0.73700
Al49       Al  0.15169498  0.36243091  0.87249430     1.49000
C50         C  0.12053717  0.36450006  0.95057400     0.93600
O51         O  0.21311988  0.33425987  0.97360280    -0.79900
O52         O  0.25735480  0.34417246  0.91702848    -0.73500
Al53       Al  0.19145246  0.37212186  0.94811605     1.90100
O54         O  0.20538991  0.29886460  0.92817139    -0.72500
O55         O  0.23174240  0.34960663  0.84675704    -0.72400
O56         O  0.18555201  0.29879310  0.85858763    -0.78000
O57         O  0.17899010  0.35715101  0.82415926    -0.76200
O58         O  0.18705801  0.35362211  0.90284970    -1.12400
O59         O  0.16380207  0.40523578  0.86957918    -0.71600
C60         C  0.16198266  0.42311479  0.89851756     0.99200
C61         C  0.21411551  0.30530429  0.96177605     0.95600
Al62       Al  0.21794567  0.32508601  0.88830751     1.55600
O63         O  0.14890576  0.35630115  0.96532683    -0.76200
C64         C  0.21214690  0.35730135  0.81946777     0.98900
C65         C  0.26060178  0.37129708  0.93341773     0.94600
O66         O  0.23484358  0.38970214  0.93473351    -0.81500
O67         O  0.26521656  0.12047286  0.06108461    -0.81000
C68         C  0.34806412  0.21530283  0.12449055     0.98400
O69         O  0.31594712  0.21291027  0.13291823    -0.70100
O70         O  0.29805746  0.21044464  0.06289168    -0.73700
Al71       Al  0.28367211  0.18637683  0.10384140     1.49000
C72         C  0.29036758  0.20288612  0.02929862     0.93600
O73         O  0.35277879  0.14990460  0.03053816    -0.79900
O74         O  0.33488411  0.10617177  0.12885191    -0.73500
Al75       Al  0.30966536  0.13610845  0.04777675     1.90100
O76         O  0.38263850  0.13816069  0.08232127    -0.72500
O77         O  0.32052301  0.15661428  0.17064597    -0.72400
O78         O  0.36550329  0.19040802  0.11911517    -0.78000
O79         O  0.26831332  0.16392388  0.14641790    -0.76200
O80         O  0.31391850  0.15658335  0.09179380    -1.12400
O81         O  0.24442408  0.16748580  0.07524195    -0.71600
C82         C  0.24035963  0.13994054  0.06029872     0.99200
C83         C  0.38102542  0.14250547  0.04609012     0.95600
Al84       Al  0.34853429  0.14852939  0.12336802     1.55600
O85         O  0.29015409  0.17343691  0.01930889    -0.76200
C86         C  0.28731527  0.15761425  0.17474930     0.99700
C87         C  0.33678457  0.08671731  0.10143835     0.94600
O88         O  0.32928941  0.09570122  0.06740153    -0.81500
O89         O  0.48399575  0.14503667  0.55734754    -0.81000
C90         C  0.40481704  0.05196655  0.62851382     0.98400
O91         O  0.43733116  0.05410389  0.63480897    -0.70100
O92         O  0.45354138  0.05443939  0.56370967    -0.73700
Al93       Al  0.46858522  0.08015777  0.60365005     1.49000
C94         C  0.46048870  0.06148026  0.52976023     0.93600
O95         O  0.39591542  0.11323298  0.53291327    -0.79900
O96         O  0.41778393  0.16152014  0.62815026    -0.73500
Al97       Al  0.43964624  0.12834264  0.54704023     1.90100
O98         O  0.36867504  0.12800955  0.58566099    -0.72500
O99         O  0.43366134  0.11176658  0.67115399    -0.72400
O100        O  0.38726598  0.07675837  0.62317004    -0.78000
O101        O  0.48508981  0.10379795  0.64516219    -0.76200
O102        O  0.43757939  0.10945118  0.59207475    -1.12400
O103        O  0.00647716  0.09881526  0.57437631    -0.71600
C104        C  0.00931917  0.12574439  0.55774010     0.99200
C105        C  0.36872563  0.12235452  0.54965581     0.95600
Al106      Al  0.40419204  0.11867082  0.62509531     1.55600
O107        O  0.45923335  0.09060430  0.51900472    -0.76200
C108        C  0.46688426  0.11032686  0.67419146     0.99700
C109        C  0.41399851  0.17969112  0.59978001     0.94600
O110        O  0.42016484  0.16934066  0.56585964    -0.81500
O111        O  0.08123338  0.35105244  0.43071655    -0.81000
C112        C  0.09657635  0.46847961  0.36831548     0.98400
O113        O  0.11399394  0.44374493  0.37409368    -0.70100
O114        O  0.13197941  0.39373097  0.41353406    -0.73700
Al115      Al  0.09807387  0.40173419  0.37188852     1.49000
C116        C  0.12996216  0.39947096  0.44952042     0.93600
O117        O  0.03706346  0.42846568  0.47490777    -0.79900
O118        O  0.49221388  0.41806823  0.41867155    -0.73500
Al119      Al  0.05943906  0.39139550  0.44795573     1.90100
O120        O  0.04455831  0.46465092  0.43067830    -0.72500
O121        O  0.01784406  0.41533029  0.34763793    -0.72400
O122        O  0.06419122  0.46620575  0.36093160    -0.78000
O123        O  0.07031197  0.40747436  0.32422705    -0.76200
O124        O  0.06310725  0.41035005  0.40305302    -1.12400
O125        O  0.08584691  0.35870820  0.36852912    -0.71600
C126        C  0.08885560  0.34078146  0.39717992     0.99200
C127        C  0.03577062  0.45754814  0.46405055     0.95600
Al128      Al  0.03197264  0.43898839  0.38997255     1.55600
O129        O  0.10168210  0.40796771  0.46445876    -0.76200
C130        C  0.03713868  0.40800094  0.31986254     0.99700
C131        C  0.49004521  0.39077356  0.43470999     0.94600
O132        O  0.01650278  0.37328688  0.43466013    -0.81500
O133        O  0.33016581  0.42037091  0.56590597    -0.81000
C134        C  0.34588552  0.30143352  0.62532579     0.98400
O135        O  0.36334159  0.32631602  0.61962910    -0.70100
O136        O  0.38171381  0.37741173  0.58169985    -0.73700
Al137      Al  0.34693283  0.36822845  0.62286053     1.49000
C138        C  0.38000937  0.37212526  0.54553755     0.93600
O139        O  0.28869942  0.34217716  0.51841751    -0.79900
O140        O  0.24324179  0.34934802  0.57333091    -0.73500
Al141      Al  0.30935220  0.37961911  0.54673490     1.90100
O142        O  0.29684989  0.30577333  0.56219194    -0.72500
O143        O  0.26604175  0.35306064  0.64481361    -0.72400
O144        O  0.31351603  0.30355740  0.63265650    -0.78000
O145        O  0.31785579  0.36139390  0.66985954    -0.76200
O146        O  0.31264970  0.35979409  0.59103571    -1.12400
O147        O  0.33404306  0.41078928  0.62753783    -0.71600
C148        C  0.33710247  0.42984961  0.60005001     0.99200
C149        C  0.28850414  0.31288765  0.52877060     0.95600
Al150      Al  0.28190064  0.33019845  0.60276510     1.55600
O151        O  0.35174733  0.36451987  0.53013337    -0.76200
C152        C  0.28451580  0.36042607  0.67326785     0.99700
C153        C  0.24047479  0.37681786  0.55801576     0.94600
O154        O  0.26561781  0.39608412  0.55965049    -0.81500
O155        O  0.23677450  0.12536761  0.43493590    -0.81000
C156        C  0.15513436  0.21872588  0.37055898     0.98400
O157        O  0.18731027  0.21645989  0.36242334    -0.70100
O158        O  0.20416196  0.21509523  0.43279763    -0.73700
Al159      Al  0.21919436  0.19051884  0.39238850     1.49000
C160        C  0.21224326  0.20809910  0.46634307     0.93600
O161        O  0.14964262  0.15433903  0.46591891    -0.79900
O162        O  0.16743314  0.10945876  0.36791309    -0.73500
Al163      Al  0.19270431  0.14080575  0.44865845     1.90100
O164        O  0.12005816  0.14214718  0.41378106    -0.72500
O165        O  0.18280029  0.15928540  0.32589461    -0.72400
O166        O  0.13766596  0.19384337  0.37642211    -0.78000
O167        O  0.23497452  0.16742894  0.35029559    -0.76200
O168        O  0.18867872  0.16069193  0.40450565    -1.12400
O169        O  0.25825364  0.17231862  0.42205913    -0.71600
C170        C  0.26152875  0.14493499  0.43739814     0.99200
C171        C  0.12158901  0.14645786  0.45005843     0.95600
Al172      Al  0.15430175  0.15198544  0.37284792     1.55600
O173        O  0.21235257  0.17880661  0.47681231    -0.76200
C174        C  0.21605555  0.16019684  0.32206520     0.99700
C175        C  0.16517212  0.09050992  0.39564581     0.94600
O176        O  0.17295370  0.09996113  0.42951986    -0.81500
C177        C  0.28114199  0.25486608  0.51705887     0.24400
C178        C  0.27227730  0.28654746  0.50700288    -0.23700
C179        C  0.24126571  0.29187981  0.48698800     0.19300
C180        C  0.21927331  0.26628100  0.47794714     0.24400
C181        C  0.22810720  0.23460489  0.48815740    -0.23600
C182        C  0.25897211  0.22934335  0.50841325     0.19300
F183        F  0.26854032  0.19934494  0.51835499    -0.13600
F184        F  0.31094868  0.24874393  0.53669542    -0.15900
F185        F  0.18966730  0.27232978  0.45790598    -0.15900
F186        F  0.23138613  0.32195585  0.47769700    -0.13600
C187        C  0.46573046  0.36308230  0.49301803     0.24400
C188        C  0.46042228  0.38293993  0.46059598    -0.23700
C189        C  0.42868195  0.39911272  0.45725556     0.19300
C190        C  0.40329161  0.39622263  0.48584728     0.24400
C191        C  0.40922247  0.37749411  0.51881042    -0.23600
C192        C  0.44043248  0.36070249  0.52197828     0.19300
F193        F  0.44599788  0.34130533  0.55247842    -0.13600
F194        F  0.49588142  0.34668411  0.49758597    -0.15900
F195        F  0.37266301  0.41192787  0.48136027    -0.15900
F196        F  0.42225592  0.41790732  0.42640353    -0.13600
C197        C  0.17800034  0.37201938  0.53787781     0.24400
C198        C  0.21160380  0.38391168  0.53130085    -0.23700
C199        C  0.21876276  0.39975936  0.49622352     0.19300
C200        C  0.19266463  0.40394012  0.46871818     0.24400
C201        C  0.15886870  0.39311200  0.47610613    -0.23600
C202        C  0.15175611  0.37696110  0.51081504     0.19300
F203        F  0.11933527  0.36535236  0.51824977    -0.13600
F204        F  0.17050588  0.35577788  0.57055276    -0.15900
F205        F  0.20024530  0.41910704  0.43531603    -0.15900
F206        F  0.25140168  0.41016596  0.48766371    -0.13600
C207        C  0.12553033  0.05480501  0.35711021     0.24400
C208        C  0.14922877  0.05870725  0.38807175    -0.23700
C209        C  0.15511317  0.03279520  0.41247770     0.19300
C210        C  0.13834422  0.00357332  0.40576704     0.24400
C211        C  0.11463396  0.99982078  0.37502589    -0.23600
C212        C  0.10812354  0.02577052  0.35103868     0.19300
F213        F  0.08537418  0.02290909  0.32137901    -0.13600
F214        F  0.11816950  0.07942026  0.33323169    -0.15900
F215        F  0.14355092  0.47839579  0.42962311    -0.15900
F216        F  0.17716647  0.03564933  0.44275679    -0.13600
C217        C  0.11124896  0.25288820  0.40451236     0.24400
C218        C  0.13815364  0.25002743  0.37683627    -0.23700
C219        C  0.14952092  0.27743236  0.35755094     0.19300
C220        C  0.13317591  0.30672337  0.36423346     0.24400
C221        C  0.10550976  0.30936764  0.39096824    -0.23600
C222        C  0.09524609  0.28232831  0.41162203     0.19300
F223        F  0.06944863  0.28428574  0.43826934    -0.13600
F224        F  0.10122492  0.22736531  0.42581334    -0.15900
F225        F  0.14522542  0.33280729  0.34526548    -0.15900
F226        F  0.17632540  0.27590108  0.33208733    -0.13600
C227        C  0.37214134  0.46650541  0.64293685     0.24400
C228        C  0.35255071  0.46184458  0.60869969    -0.23700
C229        C  0.35035937  0.48719315  0.58260920     0.19300
C230        C  0.36559770  0.01641937  0.59069394     0.24400
C231        C  0.38747910  0.02080815  0.62282976    -0.23600
C232        C  0.38926459  0.49547734  0.65036609     0.19300
F233        F  0.40795104  0.49906733  0.68320819    -0.13600
F234        F  0.37582083  0.44270707  0.66897648    -0.15900
F235        F  0.36088625  0.04049135  0.56525181    -0.15900
F236        F  0.33230380  0.48383664  0.54934859    -0.13600
C237        C  0.40347245  0.23720926  0.58188289     0.24400
C238        C  0.39788261  0.21146257  0.60679854    -0.23700
C239        C  0.37429341  0.21543786  0.63785142     0.19300
C240        C  0.35704961  0.24445150  0.64389437     0.24400
C241        C  0.36336820  0.27030913  0.61957624    -0.23600
C242        C  0.38662296  0.26639228  0.58837686     0.19300
F243        F  0.39213111  0.29062080  0.56325500    -0.13600
F244        F  0.42533336  0.23423485  0.55137366    -0.15900
F245        F  0.33454240  0.24737297  0.67383201    -0.15900
F246        F  0.36682264  0.19083648  0.66180660    -0.13600
C247        C  0.00914915  0.04029858  0.49036411     0.24400
C248        C  0.47644596  0.03554589  0.50711326    -0.23700
C249        C  0.46578268  0.00376883  0.51423013     0.19300
C250        C  0.48581421  0.47696937  0.50513078     0.24400
C251        C  0.01864033  0.48346454  0.48569004    -0.23600
C252        C  0.03063701  0.01470105  0.48033876     0.19300
F253        F  0.06147026  0.02099694  0.46258198    -0.13600
F254        F  0.02060844  0.07051988  0.48408039    -0.15900
F255        F  0.47428451  0.44670244  0.51103403    -0.15900
F256        F  0.43477783  0.99774937  0.53174961    -0.13600
C257        C  0.31885314  0.15898869  0.46846489     0.24400
C258        C  0.29016363  0.13818806  0.46499689    -0.23700
C259        C  0.28619671  0.11346668  0.49247967     0.19300
C260        C  0.31042301  0.10959904  0.52208220     0.24400
C261        C  0.33910040  0.13005407  0.52481742    -0.23600
C262        C  0.34308174  0.15484797  0.49798143     0.19300
F263        F  0.37093350  0.17489454  0.50011788    -0.13600
F264        F  0.32347278  0.18346194  0.44349477    -0.15900
F265        F  0.30636030  0.08532780  0.54742973    -0.15900
F266        F  0.25846638  0.09324322  0.49145907    -0.13600
C267        C  0.07100059  0.11684509  0.53594733     0.24400
C268        C  0.03908270  0.13266796  0.53173761    -0.23700
C269        C  0.03396948  0.15201185  0.49889003     0.19300
C270        C  0.06006879  0.15520993  0.47103543     0.24400
C271        C  0.09200363  0.13995840  0.47584605    -0.23600
C272        C  0.09732797  0.12074626  0.50850704     0.19300
F273        F  0.12810878  0.10542367  0.51364118    -0.13600
F274        F  0.07677099  0.09762764  0.56658582    -0.15900
F275        F  0.05447077  0.17388024  0.43990212    -0.15900
F276        F  0.50230092  0.16601535  0.49062987    -0.13600
C277        C  0.27084355  0.15332846  0.28251659     0.24400
C278        C  0.23393759  0.15488117  0.28446050    -0.23700
C279        C  0.21509306  0.15361522  0.25001795     0.19300
C280        C  0.23252957  0.15279634  0.21466267     0.24400
C281        C  0.26947882  0.15358502  0.21262792    -0.23600
C282        C  0.28831615  0.15290859  0.24711814     0.19300
F283        F  0.32370398  0.15306518  0.24681200    -0.13600
F284        F  0.29046400  0.15301030  0.31495559    -0.15900
F285        F  0.21279111  0.15214529  0.18231486    -0.15900
F286        F  0.17971819  0.15442745  0.25028030    -0.13600
C287        C  0.26606336  0.36899553  0.78032313     0.24400
C288        C  0.22944691  0.36426709  0.78191506    -0.23700
C289        C  0.21094241  0.36334157  0.74724637     0.19300
C290        C  0.22876911  0.36430963  0.71205424     0.24400
C291        C  0.26579430  0.36556369  0.71055195    -0.23600
C292        C  0.28395647  0.36938680  0.74517999     0.19300
F293        F  0.31919404  0.37241604  0.74531087    -0.13600
F294        F  0.28504590  0.37234389  0.81299495    -0.15900
F295        F  0.20944370  0.36293791  0.67942257    -0.15900
F296        F  0.17572770  0.35992370  0.74718643    -0.13600
C297        C  0.28104070  0.26093154  0.01884066     0.24400
C298        C  0.27554692  0.22904784  0.00630564    -0.23700
C299        C  0.24860915  0.22272925  0.98038481     0.19300
C300        C  0.22626044  0.24718562  0.96915996     0.24400
C301        C  0.23111493  0.27892755  0.98256763    -0.23600
C302        C  0.25852167  0.28533224  0.00791081     0.19300
F303        F  0.26421065  0.31535276  0.02135891    -0.13600
F304        F  0.30773706  0.26837651  0.04293569    -0.15900
F305        F  0.19987098  0.23974860  0.94468506    -0.15900
F306        F  0.24284799  0.19263788  0.96719050    -0.13600
C307        C  0.48170488  0.39956093  0.28006893     0.24400
C308        C  0.01968054  0.40216747  0.28213516    -0.23700
C309        C  0.03833212  0.40324787  0.24752784     0.19300
C310        C  0.02075174  0.40261851  0.21227205     0.24400
C311        C  0.48263726  0.40179527  0.21015004    -0.23600
C312        C  0.46411945  0.39919073  0.24476252     0.19300
F313        F  0.42875822  0.39752315  0.24474826    -0.13600
F314        F  0.46223650  0.39748388  0.31258562    -0.15900
F315        F  0.04027822  0.40431930  0.17975921    -0.15900
F316        F  0.07356719  0.40654928  0.24759231    -0.13600
C317        C  0.06199298  0.35185847  0.97802277     0.24400
C318        C  0.09175432  0.37106777  0.97724525    -0.23700
C319        C  0.09622961  0.39491276  0.00545226     0.19300
C320        C  0.07054138  0.40039094  0.03325877     0.24400
C321        C  0.04007672  0.38165804  0.03379305    -0.23600
C322        C  0.03647739  0.35684626  0.00612237     0.19300
F323        F  0.00769790  0.33787882  0.00516724    -0.13600
F324        F  0.05790063  0.32789178  0.95203435    -0.15900
F325        F  0.07526210  0.42438697  0.05908226    -0.15900
F326        F  0.12551674  0.41324205  0.00572527    -0.13600
C327        C  0.31873782  0.41605562  0.00366701     0.24400
C328        C  0.33808995  0.39102630  0.01940269    -0.23700
C329        C  0.33523171  0.36040707  0.00301425     0.19300
C330        C  0.31245710  0.35458073  0.97234985     0.24400
C331        C  0.29125915  0.37914655  0.95798728    -0.23600
C332        C  0.29521758  0.41017790  0.97362701     0.19300
F333        F  0.27615411  0.43490506  0.96000708    -0.13600
F334        F  0.32289097  0.44627813  0.01717630    -0.15900
F335        F  0.31036707  0.32454283  0.95773101    -0.15900
F336        F  0.35536046  0.33618991  0.01605230    -0.13600
C337        C  0.38874766  0.02122768  0.15034768     0.24400
C338        C  0.38717987  0.99680108  0.12305830    -0.23700
C339        C  0.36821545  0.00147430  0.08895214     0.19300
C340        C  0.35082658  0.03017104  0.08219148     0.24400
C341        C  0.35193512  0.05481591  0.10958005    -0.23600
C342        C  0.37109782  0.04988056  0.14396005     0.19300
F343        F  0.37392282  0.07311982  0.17110051    -0.13600
F344        F  0.40708147  0.01726969  0.18330153    -0.15900
F345        F  0.33334918  0.03389167  0.04864978    -0.15900
F346        F  0.33324871  0.47164863  0.09944577    -0.13600
C347        C  0.40865932  0.27892926  0.08361988     0.24400
C348        C  0.39501965  0.30671253  0.10007335    -0.23700
C349        C  0.36545400  0.30445329  0.12409468     0.19300
C350        C  0.35027368  0.27488871  0.13230023     0.24400
C351        C  0.36478044  0.24676741  0.11740348    -0.23600
C352        C  0.39398772  0.24913817  0.09253785     0.19300
F353        F  0.40785160  0.22270977  0.07587257    -0.13600
F354        F  0.43655038  0.28055172  0.05963221    -0.15900
F355        F  0.32142663  0.27386461  0.15492875    -0.15900
F356        F  0.35068256  0.33114452  0.13911880    -0.13600
C357        C  0.46691162  0.11774748  0.74631061     0.24400
C358        C  0.48538806  0.11394619  0.71174058    -0.23700
C359        C  0.02082114  0.11349207  0.71433638     0.19300
C360        C  0.03830020  0.11188574  0.74955805     0.24400
C361        C  0.01958062  0.11168015  0.78421107    -0.23600
C362        C  0.48437672  0.11708377  0.78163587     0.19300
F363        F  0.46515269  0.12045159  0.81419037    -0.13600
F364        F  0.43173056  0.12107829  0.74620137    -0.15900
F365        F  0.07355928  0.10912039  0.74944418    -0.15900
F366        F  0.04040495  0.11273434  0.68180517    -0.13600
C367        C  0.47081064  0.01410512  0.01717834     0.24400
C368        C  0.48011292  0.48254888  0.00913670    -0.23700
C369        C  0.01362187  0.47553099  0.99230162     0.19300
C370        C  0.03379836  0.99908143  0.98059247     0.24400
C371        C  0.02518298  0.03113426  0.98897246    -0.23600
C372        C  0.99420264  0.03765111  0.00875400     0.19300
F373        F  0.48229384  0.06976984  0.01381116    -0.13600
F374        F  0.44012191  0.02082099  0.03495012    -0.15900
F375        F  0.06360802  0.99200967  0.96125272    -0.15900
F376        F  0.02402129  0.44513586  0.98532228    -0.13600
C377        C  0.11838405  0.25962342  0.90824600     0.24400
C378        C  0.13688767  0.26481686  0.87373564    -0.23700
C379        C  0.13859764  0.24048267  0.84636631     0.19300
C380        C  0.12206971  0.21125848  0.85323604     0.24400
C381        C  0.10379007  0.20567410  0.88811012    -0.23600
C382        C  0.10207276  0.23030730  0.91542664     0.19300
F383        F  0.08465253  0.22609495  0.94902594    -0.13600
F384        F  0.11702212  0.28276363  0.93564163    -0.15900
F385        F  0.12496656  0.18816667  0.82593603    -0.15900
F386        F  0.15573671  0.24518119  0.81269283    -0.13600
C387        C  0.11401222  0.45635710  0.87259382     0.24400
C388        C  0.14580640  0.45454762  0.89280789    -0.23700
C389        C  0.16228830  0.48262457  0.90464115     0.19300
C390        C  0.14909153  0.01290942  0.89006919     0.24400
C391        C  0.11481301  0.01424938  0.87481960    -0.23600
C392        C  0.09888504  0.48587722  0.86445127     0.19300
F393        F  0.06796369  0.48656205  0.84554657    -0.13600
F394        F  0.09722506  0.42934341  0.86114955    -0.15900
F395        F  0.16847027  0.03978937  0.89504241    -0.15900
F396        F  0.19299533  0.48139811  0.92388415    -0.13600
C397        C  0.20467181  0.10150177  0.02066097     0.24400
C398        C  0.21023911  0.13280032  0.03471534    -0.23700
C399        C  0.19137390  0.15797604  0.01802668     0.19300
C400        C  0.16932455  0.15230180  0.98672090     0.24400
C401        C  0.16466074  0.12128164  0.97215875    -0.23600
C402        C  0.18171190  0.09582249  0.99006714     0.19300
F403        F  0.17564457  0.06537004  0.97827166    -0.13600
F404        F  0.22139841  0.07631081  0.03657402    -0.15900
F405        F  0.15131199  0.17705265  0.97152955    -0.15900
F406        F  0.19491512  0.18836201  0.03118268    -0.13600
C407        C  0.47065308  0.14609197  0.00037612     0.24400
C408        C  0.46457362  0.13051915  0.96475336    -0.23700
C409        C  0.43135485  0.11800835  0.95732963     0.19300
C410        C  0.40468435  0.12137475  0.98443484     0.24400
C411        C  0.41076129  0.13691819  0.01991942    -0.23600
C412        C  0.44406267  0.14886320  0.02784661     0.19300
F413        F  0.45068824  0.16374890  0.06177939    -0.13600
F414        F  0.00173336  0.15902664  0.00712243    -0.15900
F415        F  0.37282534  0.10886645  0.97619098    -0.15900
F416        F  0.42464515  0.10258038  0.92375954    -0.13600
O417        O  0.02133567  0.64132728  0.94013174    -0.81000
C418        C  0.09879360  0.54583839  0.87019736     0.98400
O419        O  0.06633851  0.54848563  0.86350443    -0.70100
O420        O  0.04834460  0.55031568  0.93368884    -0.73700
Al421      Al  0.03516149  0.57576293  0.89328655     1.49000
C422        C  0.04227872  0.55793172  0.96771639     0.93600
O423        O  0.10799945  0.60710531  0.96505999    -0.79900
O424        O  0.08850456  0.65510602  0.86933305    -0.73500
Al425      Al  0.06511936  0.62365028  0.95044209     1.90100
O426        O  0.13639123  0.62174142  0.91321260    -0.72500
O427        O  0.07271719  0.60568306  0.82640186    -0.72400
O428        O  0.11682895  0.57051271  0.87541001    -0.78000
O429        O  0.02037963  0.59926338  0.85088740    -0.76200
O430        O  0.06693530  0.60435299  0.90542370    -1.12400
O431        O  0.49721229  0.59736966  0.92252488    -0.71600
C432        C  0.49519346  0.62447915  0.93918719     0.99200
C433        C  0.13583964  0.61511851  0.94892130     0.95600
Al434      Al  0.10119986  0.61251748  0.87305259     1.55600
O435        O  0.04424589  0.58705455  0.97828231    -0.76200
C436        C  0.03957194  0.60569066  0.82256814     0.99700
C437        C  0.09162111  0.67388125  0.89731780     0.94600
O438        O  0.08586153  0.66398470  0.93145257    -0.81500
O439        O  0.42085610  0.84893995  0.06459900    -0.81000
C440        C  0.40466607  0.96602331  0.12885132     0.98400
O441        O  0.38728824  0.94112696  0.12285359    -0.70100
O442        O  0.36917525  0.89069204  0.08314126    -0.73700
Al443      Al  0.40389378  0.89940209  0.12419466     1.49000
C444        C  0.37015261  0.89647422  0.04713219     0.93600
O445        O  0.46217725  0.92725817  0.02024588    -0.79900
O446        O  0.00597651  0.91766029  0.07514030    -0.73500
Al447      Al  0.44126986  0.88973381  0.04725373     1.90100
O448        O  0.45440370  0.96362951  0.06458450    -0.72500
O449        O  0.48450122  0.91500982  0.14634888    -0.72400
O450        O  0.43709616  0.96428293  0.13549869    -0.78000
O451        O  0.43287121  0.90566359  0.17126471    -0.76200
O452        O  0.43792379  0.90883462  0.09225849    -1.12400
O453        O  0.41686075  0.85668213  0.12688239    -0.71600
C454        C  0.41391348  0.83863824  0.09816638     0.99200
C455        C  0.46299263  0.95644372  0.03108096     0.95600
Al456      Al  0.46877351  0.93832963  0.10482832     1.55600
O457        O  0.39809896  0.90470728  0.03109188    -0.76200
C458        C  0.46615279  0.90728653  0.17471811     0.99700
C459        C  0.00852664  0.89000210  0.05985926     0.94600
O460        O  0.48482088  0.87313065  0.06021090    -0.81500
O461        O  0.16933755  0.91373396  0.93505714    -0.81000
C462        C  0.15432513  0.79724835  0.86933361     0.98400
O463        O  0.13639037  0.82146261  0.87642140    -0.70100
O464        O  0.11795850  0.87098683  0.91677417    -0.73700
Al465      Al  0.15193095  0.86357778  0.87502848     1.49000
C466        C  0.11968344  0.86482492  0.95254450     0.93600
O467        O  0.21217680  0.83533392  0.97684147    -0.79900
O468        O  0.25713399  0.84569859  0.92083245    -0.73500
Al469      Al  0.19059751  0.87302719  0.95135785     1.90100
O470        O  0.20544688  0.80002363  0.93106194    -0.72500
O471        O  0.23249212  0.85135192  0.85009232    -0.72400
O472        O  0.18644019  0.80022831  0.86112122    -0.78000
O473        O  0.17980225  0.85857452  0.82709391    -0.76200
O474        O  0.18700463  0.85481996  0.90581734    -1.12400
O475        O  0.16377580  0.90653591  0.87266938    -0.71600
C476        C  0.16156281  0.92419912  0.90178295     0.99200
C477        C  0.21357591  0.80647828  0.96486687     0.95600
Al478      Al  0.21828122  0.82654394  0.89147690     1.55600
O479        O  0.14792876  0.85672538  0.96764283    -0.76200
C480        C  0.21297689  0.85869004  0.82256114     0.98900
C481        C  0.26003945  0.87264665  0.93768521     0.94600
O482        O  0.23410264  0.89087374  0.93901259    -0.81500
O483        O  0.26645064  0.62104138  0.06173242    -0.81000
C484        C  0.34882101  0.71608043  0.12588372     0.98400
O485        O  0.31665299  0.71366152  0.13396442    -0.70100
O486        O  0.29797385  0.71155841  0.06401027    -0.73700
Al487      Al  0.28447998  0.68690566  0.10498854     1.49000
C488        C  0.29018044  0.70401557  0.03040953     0.93600
O489        O  0.35306537  0.65205702  0.03026480    -0.79900
O490        O  0.33794443  0.60649760  0.12783688    -0.73500
Al491      Al  0.31041670  0.63741620  0.04787846     1.90100
O492        O  0.38381447  0.64041856  0.08149508    -0.72500
O493        O  0.32222240  0.65613935  0.17090591    -0.72400
O494        O  0.36620482  0.69129378  0.12002184    -0.78000
O495        O  0.26984430  0.66403956  0.14739337    -0.76200
O496        O  0.31496293  0.65742109  0.09221230    -1.12400
O497        O  0.24519611  0.66769813  0.07691143    -0.71600
C498        C  0.24125355  0.64014921  0.06194609     0.99200
C499        C  0.38165087  0.64511766  0.04537273     0.95600
Al500      Al  0.35007053  0.64932303  0.12322594     1.55600
O501        O  0.29001834  0.67463008  0.02030278    -0.76200
C502        C  0.28905020  0.65720419  0.17533047     0.99700
C503        C  0.33908997  0.58770234  0.09969792     0.94600
O504        O  0.33077311  0.59705431  0.06613819    -0.81500
O505        O  0.48444175  0.64364599  0.55853545    -0.81000
C506        C  0.40451571  0.55147406  0.63078854     0.98400
O507        O  0.43711472  0.55315863  0.63675146    -0.70100
O508        O  0.45267161  0.55335036  0.56545543    -0.73700
Al509      Al  0.46850368  0.57888104  0.60523679     1.49000
C510        C  0.45946237  0.56036939  0.53147052     0.93600
O511        O  0.39577408  0.61238350  0.53536731    -0.79900
O512        O  0.41898524  0.66105116  0.63001640    -0.73500
Al513      Al  0.43970113  0.62736503  0.54888717     1.90100
O514        O  0.36902789  0.62772248  0.58817695    -0.72500
O515        O  0.43475329  0.61123550  0.67304928    -0.72400
O516        O  0.38732674  0.57652454  0.62583091    -0.78000
O517        O  0.48579381  0.60225249  0.64658893    -0.76200
O518        O  0.43784798  0.60859492  0.59401225    -1.12400
O519        O  0.00721636  0.59852716  0.57389732    -0.71600
C520        C  0.01002286  0.62549279  0.55730825     0.99200
C521        C  0.36871329  0.62155042  0.55228025     0.95600
Al522      Al  0.40486161  0.61827098  0.62733924     1.55600
O523        O  0.45857944  0.58950796  0.52079927    -0.76200
C524        C  0.46795784  0.60924064  0.67575739     0.99700
C525        C  0.41492220  0.67919546  0.60166346     0.94600
O526        O  0.42067646  0.66867294  0.56771321    -0.81500
O527        O  0.08364405  0.85085278  0.43121966    -0.81000
C528        C  0.09730929  0.96857440  0.36933929     0.98400
O529        O  0.11510060  0.94408491  0.37514503    -0.70100
O530        O  0.13412012  0.89409759  0.41414489    -0.73700
Al531      Al  0.09982668  0.90198055  0.37273598     1.49000
C532        C  0.13220312  0.89960630  0.45019051     0.93600
O533        O  0.03916889  0.92796216  0.47633234    -0.79900
O534        O  0.49423871  0.91752913  0.42059471    -0.73500
Al535      Al  0.06163234  0.89103063  0.44901827     1.90100
O536        O  0.04573547  0.96431216  0.43207595    -0.72500
O537        O  0.01917779  0.91467982  0.34906311    -0.72400
O538        O  0.06494500  0.96594929  0.36208805    -0.78000
O539        O  0.07168776  0.90770482  0.32525845    -0.76200
O540        O  0.06483887  0.91010935  0.40416959    -1.12400
O541        O  0.08834125  0.85882253  0.36906107    -0.71600
C542        C  0.09144029  0.84079202  0.39760135     0.99200
C543        C  0.03742798  0.95706506  0.46557367     0.95600
Al544      Al  0.03326964  0.93848551  0.39137167     1.55600
O545        O  0.10390126  0.90780681  0.46530697    -0.76200
C546        C  0.03847602  0.90791723  0.32106193     0.99700
C547        C  0.49231161  0.89060751  0.43757572     0.94600
O548        O  0.01861605  0.87269875  0.43620643    -0.81500
O549        O  0.33196684  0.91944585  0.56736808    -0.81000
C550        C  0.34698455  0.80120280  0.62816942     0.98400
O551        O  0.36456063  0.82604873  0.62267520    -0.70100
O552        O  0.38326431  0.87684784  0.58436623    -0.73700
Al553      Al  0.34829299  0.86805620  0.62542181     1.49000
C554        C  0.38184947  0.87129716  0.54824837     0.93600
O555        O  0.29030081  0.84128481  0.52085921    -0.79900
O556        O  0.24452250  0.84946666  0.57565492    -0.73500
Al557      Al  0.31113010  0.87879220  0.54877913     1.90100
O558        O  0.29759489  0.80524500  0.56520014    -0.72500
O559        O  0.26735880  0.85343100  0.64733461    -0.72400
O560        O  0.31458932  0.80344260  0.63545779    -0.78000
O561        O  0.31905485  0.86157704  0.67259915    -0.76200
O562        O  0.31408061  0.85944839  0.59344687    -1.12400
O563        O  0.33566805  0.91082643  0.62933470    -0.71600
C564        C  0.33884614  0.92938102  0.60129137     0.99200
C565        C  0.28968712  0.81210877  0.53158597     0.95600
Al566      Al  0.28303967  0.83017892  0.60543489     1.55600
O567        O  0.35371367  0.86334352  0.53270421    -0.76200
C568        C  0.28571334  0.86048120  0.67599627     0.99700
C569        C  0.24210497  0.87676847  0.55978313     0.94600
O570        O  0.26750168  0.89573803  0.56122438    -0.81500
O571        O  0.23803208  0.62399732  0.43580074    -0.81000
C572        C  0.15776034  0.71853073  0.37086092     0.98400
O573        O  0.18997440  0.71595905  0.36296611    -0.70100
O574        O  0.20677216  0.71414302  0.43322630    -0.73700
Al575      Al  0.22143522  0.68941200  0.39293940     1.49000
C576        C  0.21454423  0.70717706  0.46684904     0.93600
O577        O  0.15113140  0.65414898  0.46622900    -0.79900
O578        O  0.16841582  0.60896250  0.36825949    -0.73500
Al579      Al  0.19406469  0.64001881  0.44917114     1.90100
O580        O  0.12150550  0.64228992  0.41404437    -0.72500
O581        O  0.18474362  0.65868266  0.32635147    -0.72400
O582        O  0.14004974  0.69378044  0.37667980    -0.78000
O583        O  0.23694528  0.66616596  0.35092567    -0.76200
O584        O  0.19046613  0.65995165  0.40497113    -1.12400
O585        O  0.26010564  0.67066647  0.42265931    -0.71600
C586        C  0.26306107  0.64329977  0.43813049     0.99200
C587        C  0.12300121  0.64654362  0.45033667     0.95600
Al588      Al  0.15602178  0.65170917  0.37320345     1.55600
O589        O  0.21421531  0.67788905  0.47741820    -0.76200
C590        C  0.21801323  0.65927156  0.32261355     0.99700
C591        C  0.16580608  0.58996336  0.39591765     0.94600
O592        O  0.17369686  0.59929514  0.42985110    -0.81500
C593        C  0.28187934  0.75394753  0.52061592     0.24400
C594        C  0.27379282  0.78562502  0.50971014    -0.23700
C595        C  0.24387113  0.79101064  0.48782420     0.19300
C596        C  0.22214053  0.76548260  0.47778010     0.24400
C597        C  0.23018045  0.73378241  0.48881665    -0.23600
C598        C  0.26001691  0.72847083  0.51083219     0.19300
F599        F  0.26891798  0.69847978  0.52151662    -0.13600
F600        F  0.31064695  0.74775266  0.54201354    -0.15900
F601        F  0.19358325  0.77165982  0.45602289    -0.15900
F602        F  0.23475873  0.82107759  0.47754642    -0.13600
C603        C  0.46815478  0.86327850  0.49639897     0.24400
C604        C  0.46280232  0.88306857  0.46389301    -0.23700
C605        C  0.43103256  0.89924907  0.46065627     0.19300
C606        C  0.40549727  0.89606817  0.48908475     0.24400
C607        C  0.41123480  0.87698897  0.52177277    -0.23600
C608        C  0.44264075  0.86051645  0.52512661     0.19300
F609        F  0.44821711  0.84109142  0.55560676    -0.13600
F610        F  0.49853587  0.84730122  0.50127834    -0.15900
F611        F  0.37492972  0.91189559  0.48475285    -0.15900
F612        F  0.42472358  0.91840172  0.43010447    -0.13600
C613        C  0.18023300  0.87024035  0.53763563     0.24400
C614        C  0.21326053  0.88404405  0.53289466    -0.23700
C615        C  0.22007821  0.90198977  0.49917868     0.19300
C616        C  0.19431354  0.90612825  0.47121489     0.24400
C617        C  0.16114561  0.89309710  0.47674074    -0.23600
C618        C  0.15432679  0.87506125  0.51011638     0.19300
F619        F  0.12246826  0.86161351  0.51583380    -0.13600
F620        F  0.17293968  0.85218249  0.56894937    -0.15900
F621        F  0.20153564  0.92344145  0.43926718    -0.15900
F622        F  0.25211240  0.91465823  0.49236410    -0.13600
C623        C  0.12606341  0.55460347  0.35677039     0.24400
C624        C  0.14947395  0.55825792  0.38807062    -0.23700
C625        C  0.15483015  0.53215779  0.41236361     0.19300
C626        C  0.13781531  0.50306617  0.40527700     0.24400
C627        C  0.11432140  0.49959440  0.37427148    -0.23600
C628        C  0.10837882  0.52571627  0.35034392     0.19300
F629        F  0.08592297  0.52316303  0.32037532    -0.13600
F630        F  0.11928231  0.57932122  0.33283411    -0.15900
F631        F  0.14453122  0.97906003  0.43020882    -0.15900
F632        F  0.17664699  0.53468341  0.44288332    -0.13600
C633        C  0.11315799  0.75270672  0.40370278     0.24400
C634        C  0.14086868  0.74998989  0.37696300    -0.23700
C635        C  0.15286247  0.77760486  0.35848413     0.19300
C636        C  0.13646363  0.80694022  0.36516459     0.24400
C637        C  0.10819755  0.80941302  0.39118080    -0.23600
C638        C  0.09717822  0.78214252  0.41084313     0.19300
F639        F  0.07054395  0.78386250  0.43648481    -0.13600
F640        F  0.10217558  0.72698424  0.42406549    -0.15900
F641        F  0.14895730  0.83319894  0.34688630    -0.15900
F642        F  0.18027834  0.77624117  0.33380237    -0.13600
C643        C  0.37652623  0.96592896  0.64106368     0.24400
C644        C  0.35441298  0.96137751  0.60883373    -0.23700
C645        C  0.34951830  0.98692514  0.58353519     0.19300
C646        C  0.36697720  0.51632933  0.59055644     0.24400
C647        C  0.38669500  0.52061859  0.62434211    -0.23600
C648        C  0.39311013  0.99526088  0.64768649     0.19300
F649        F  0.41434639  0.99877457  0.67859610    -0.13600
F650        F  0.38323115  0.94164988  0.66566719    -0.15900
F651        F  0.36496444  0.54016442  0.56436692    -0.15900
F652        F  0.32923415  0.98342565  0.55188659    -0.13600
C653        C  0.40366503  0.73671051  0.58346784     0.24400
C654        C  0.39895204  0.71111281  0.60886891    -0.23700
C655        C  0.37633473  0.71537634  0.64076461     0.19300
C656        C  0.35905436  0.74437261  0.64701124     0.24400
C657        C  0.36439874  0.77001746  0.62211286    -0.23600
C658        C  0.38686214  0.76592659  0.59023142     0.19300
F659        F  0.39169932  0.79005464  0.56479969    -0.13600
F660        F  0.42466185  0.73359060  0.55225056    -0.15900
F661        F  0.33755343  0.74752500  0.67779553    -0.15900
F662        F  0.36987360  0.69107175  0.66548365    -0.13600
C663        C  0.00723395  0.54085439  0.48819841     0.24400
C664        C  0.47507586  0.53445144  0.50860932    -0.23700
C665        C  0.46456728  0.50263216  0.51575495     0.19300
C666        C  0.48723223  0.97802198  0.50442481     0.24400
C667        C  0.02031791  0.98285180  0.48755544    -0.23600
C668        C  0.02859154  0.51531005  0.47778044     0.19300
F669        F  0.05896261  0.52167166  0.45910366    -0.13600
F670        F  0.01835489  0.57109439  0.48128334    -0.15900
F671        F  0.47558394  0.94782337  0.51047086    -0.15900
F672        F  0.43391407  0.49647746  0.53394009    -0.13600
C673        C  0.31883551  0.65857392  0.47165733     0.24400
C674        C  0.29163972  0.63645029  0.46584525    -0.23700
C675        C  0.28870006  0.61031111  0.49149937     0.19300
C676        C  0.31214343  0.60668899  0.52195683     0.24400
C677        C  0.33895575  0.62888019  0.52746626    -0.23600
C678        C  0.34216210  0.65477272  0.50209982     0.19300
F679        F  0.36864949  0.67610012  0.50633890    -0.13600
F680        F  0.32282398  0.68411137  0.44814975    -0.15900
F681        F  0.30919747  0.58102639  0.54543159    -0.15900
F682        F  0.26282989  0.58831553  0.48769547    -0.13600
C683        C  0.07209397  0.61748638  0.53640180     0.24400
C684        C  0.03980524  0.63244883  0.53132340    -0.23700
C685        C  0.03454532  0.65105952  0.49790134     0.19300
C686        C  0.06095826  0.65451124  0.47040213     0.24400
C687        C  0.09329850  0.64017306  0.47610973    -0.23600
C688        C  0.09867793  0.62158882  0.50930354     0.19300
F689        F  0.12974936  0.60698306  0.51526818    -0.13600
F690        F  0.07800334  0.59896801  0.56762369    -0.15900
F691        F  0.05522118  0.67248874  0.43870937    -0.15900
F692        F  0.50431154  0.66701897  0.49385752    -0.13600
C693        C  0.27286500  0.65287392  0.28304973     0.24400
C694        C  0.23592683  0.65399175  0.28503799    -0.23700
C695        C  0.21705015  0.65231848  0.25065010     0.19300
C696        C  0.23445172  0.65145972  0.21529174     0.24400
C697        C  0.27139178  0.65273447  0.21320225    -0.23600
C698        C  0.29029105  0.65249923  0.24763528     0.19300
F699        F  0.32567022  0.65329174  0.24724104    -0.13600
F700        F  0.29256459  0.65306868  0.31543385    -0.15900
F701        F  0.21467957  0.65035680  0.18297937    -0.15900
F702        F  0.18166408  0.65279120  0.25095546    -0.13600
C703        C  0.26649069  0.87151625  0.78302611     0.24400
C704        C  0.23022266  0.86499771  0.78480272    -0.23700
C705        C  0.21204790  0.86123765  0.75021045     0.19300
C706        C  0.22989709  0.86156036  0.71504249     0.24400
C707        C  0.26675515  0.86521227  0.71336258    -0.23600
C708        C  0.28450232  0.87146724  0.74783697     0.19300
F709        F  0.31942999  0.87674801  0.74778163    -0.13600
F710        F  0.28495680  0.87722587  0.81560809    -0.15900
F711        F  0.21074275  0.85707338  0.68267878    -0.15900
F712        F  0.17719340  0.85544831  0.75032811    -0.13600
C713        C  0.28245071  0.76197172  0.01844764     0.24400
C714        C  0.27521375  0.73004537  0.00745110    -0.23700
C715        C  0.24656930  0.72386115  0.98378760     0.19300
C716        C  0.22392069  0.74850305  0.97401065     0.24400
C717        C  0.23063995  0.78033775  0.98575430    -0.23600
C718        C  0.26016541  0.78673688  0.00809556     0.19300
F719        F  0.26819455  0.81706384  0.01882827    -0.13600
F720        F  0.31078890  0.76909310  0.04029273    -0.15900
F721        F  0.19557153  0.74129903  0.95224697    -0.15900
F722        F  0.23962101  0.69376290  0.97138946    -0.13600
C723        C  0.48447688  0.89612567  0.28155430     0.24400
C724        C  0.02094639  0.90248750  0.28328670    -0.23700
C725        C  0.03905278  0.90609561  0.24860046     0.19300
C726        C  0.02113605  0.90588560  0.21355016     0.24400
C727        C  0.48483324  0.90227614  0.21198638    -0.23600
C728        C  0.46671675  0.89665089  0.24634280     0.19300
F729        F  0.43157821  0.89263731  0.24621406    -0.13600
F730        F  0.46551187  0.89120666  0.31397999    -0.15900
F731        F  0.04020979  0.91012574  0.18105266    -0.15900
F732        F  0.07397023  0.91159398  0.24849997    -0.13600
C733        C  0.06152862  0.85100507  0.98043536     0.24400
C734        C  0.09059965  0.87110430  0.97891069    -0.23700
C735        C  0.09450644  0.89539350  0.00662799     0.19300
C736        C  0.06891642  0.90049731  0.03458704     0.24400
C737        C  0.03898928  0.88107766  0.03567437    -0.23600
C738        C  0.03602797  0.85570578  0.00867379     0.19300
F739        F  0.00793941  0.83586461  0.00859771    -0.13600
F740        F  0.05809727  0.82651036  0.95505303    -0.15900
F741        F  0.07322087  0.92481050  0.06006482    -0.15900
F742        F  0.12322405  0.91445657  0.00637225    -0.13600
C743        C  0.31579793  0.91347975  0.01364401     0.24400
C744        C  0.34046395  0.88991269  0.02149374    -0.23700
C745        C  0.34118096  0.86219956  0.99854835     0.19300
C746        C  0.31658569  0.85739362  0.96937954     0.24400
C747        C  0.29080781  0.88046230  0.96221157    -0.23600
C748        C  0.29135502  0.90899155  0.98422712     0.19300
F749        F  0.26791294  0.93256296  0.97779192    -0.13600
F750        F  0.31565580  0.94111149  0.03406686    -0.15900
F751        F  0.31752443  0.82969447  0.94901381    -0.15900
F752        F  0.36609062  0.83977177  0.00422600    -0.13600
C753        C  0.40343205  0.52541950  0.13194930     0.24400
C754        C  0.38560458  0.49678775  0.12400199    -0.23700
C755        C  0.35178072  0.49849048  0.10764918     0.19300
C756        C  0.33683467  0.52794845  0.09857172     0.24400
C757        C  0.35483366  0.55622834  0.10644091    -0.23600
C758        C  0.38808085  0.55478091  0.12351888     0.19300
F759        F  0.40615984  0.58199275  0.13127084    -0.13600
F760        F  0.43589388  0.52514416  0.14743947    -0.15900
F761        F  0.30452608  0.52885961  0.08278502    -0.15900
F762        F  0.36781859  0.97853743  0.06131822    -0.13600
C763        C  0.41089996  0.77937536  0.08749084     0.24400
C764        C  0.39767587  0.80709788  0.10443906    -0.23700
C765        C  0.36794309  0.80494541  0.12827628     0.19300
C766        C  0.35198435  0.77551858  0.13545644     0.24400
C767        C  0.36597986  0.74745932  0.11984364    -0.23600
C768        C  0.39551135  0.74975401  0.09544287     0.19300
F769        F  0.40897768  0.72342497  0.07817192    -0.13600
F770        F  0.43903505  0.78087373  0.06383887    -0.15900
F771        F  0.32287992  0.77456970  0.15768827    -0.15900
F772        F  0.35365100  0.83161572  0.14391487    -0.13600
C773        C  0.46875535  0.61826444  0.74758679     0.24400
C774        C  0.48686391  0.61286058  0.71307823    -0.23700
C775        C  0.02346572  0.60975021  0.71486411     0.19300
C776        C  0.04089315  0.60872298  0.75018573     0.24400
C777        C  0.02228364  0.61131124  0.78479771    -0.23600
C778        C  0.48636961  0.61794648  0.78281159     0.19300
F779        F  0.46744367  0.62269426  0.81533996    -0.13600
F780        F  0.43376808  0.62291610  0.74753969    -0.15900
F781        F  0.07583408  0.60366311  0.75034314    -0.15900
F782        F  0.04285577  0.60616534  0.68245496    -0.13600
C783        C  0.47125411  0.51447603  0.01801660     0.24400
C784        C  0.48032771  0.98215753  0.00946667    -0.23700
C785        C  0.01134250  0.97417401  0.99079655     0.19300
C786        C  0.03605053  0.50071673  0.98317084     0.24400
C787        C  0.02653088  0.53261164  0.99099130    -0.23600
C788        C  0.99491276  0.53872388  0.00967925     0.19300
F789        F  0.48371631  0.57005456  0.01649992    -0.13600
F790        F  0.44079856  0.52125914  0.03623450    -0.15900
F791        F  0.06662202  0.49412322  0.96506156    -0.15900
F792        F  0.02100622  0.94362327  0.98341070    -0.13600
C793        C  0.11927353  0.76037083  0.90971626     0.24400
C794        C  0.13797169  0.76584412  0.87541491    -0.23700
C795        C  0.14036967  0.74154462  0.84805402     0.19300
C796        C  0.12430152  0.71206574  0.85473894     0.24400
C797        C  0.10575314  0.70624590  0.88937782    -0.23600
C798        C  0.10340141  0.73083914  0.91669208     0.19300
F799        F  0.08584402  0.72635899  0.95015303    -0.13600
F800        F  0.11737795  0.78342624  0.93717320    -0.15900
F801        F  0.12792894  0.68897443  0.82754786    -0.15900
F802        F  0.15778126  0.74650854  0.81460388    -0.13600
C803        C  0.11118392  0.95651281  0.88075101     0.24400
C804        C  0.14511629  0.95546393  0.89612400    -0.23700
C805        C  0.16384638  0.98379324  0.90090505     0.19300
C806        C  0.14770972  0.51223948  0.89569181     0.24400
C807        C  0.11563610  0.51427574  0.87560418    -0.23600
C808        C  0.09605044  0.98556709  0.87051286     0.19300
F809        F  0.06299375  0.98548889  0.85661561    -0.13600
F810        F  0.09255313  0.92918437  0.87566997    -0.15900
F811        F  0.16490741  0.53890376  0.90741756    -0.15900
F812        F  0.19681593  0.98316835  0.91496694    -0.13600
C813        C  0.20517110  0.60137671  0.02337016     0.24400
C814        C  0.21069769  0.63271434  0.03725485    -0.23700
C815        C  0.19152376  0.65776791  0.02081704     0.19300
C816        C  0.16991482  0.65210628  0.98919154     0.24400
C817        C  0.16551571  0.62111364  0.97451021    -0.23600
C818        C  0.18222455  0.59562650  0.99279828     0.19300
F819        F  0.17584969  0.56512184  0.98145663    -0.13600
F820        F  0.22192910  0.57625940  0.03942423    -0.15900
F821        F  0.15207284  0.67685268  0.97375268    -0.15900
F822        F  0.19453835  0.68807976  0.03436415    -0.13600
C823        C  0.47125874  0.64853269  0.99976013     0.24400
C824        C  0.46534126  0.63233564  0.96450733    -0.23700
C825        C  0.43195308  0.62045835  0.95668337     0.19300
C826        C  0.40506054  0.62460327  0.98333436     0.24400
C827        C  0.41117336  0.64012931  0.01882664    -0.23600
C828        C  0.44449228  0.65196120  0.02684376     0.19300
F829        F  0.45101002  0.66728392  0.06052190    -0.13600
F830        F  0.00350144  0.65649388  0.01082325    -0.15900
F831        F  0.37301183  0.61269485  0.97473541    -0.15900
F832        F  0.42531553  0.60487259  0.92320479    -0.13600
O833        O  0.52005178  0.14210295  0.93890431    -0.81000
C834        C  0.59825363  0.04749344  0.86877041     0.98400
O835        O  0.56577914  0.04982088  0.86194147    -0.70100
O836        O  0.54765882  0.05121793  0.93209941    -0.73700
Al837      Al  0.53429340  0.07674461  0.89177820     1.49000
C838        C  0.54109707  0.05869349  0.96605578     0.93600
O839        O  0.60713554  0.10844146  0.96328680    -0.79900
O840        O  0.58639297  0.15661703  0.86790792    -0.73500
Al841      Al  0.56398957  0.12470789  0.94901607     1.90100
O842        O  0.63504223  0.12375937  0.91137360    -0.72500
O843        O  0.57138658  0.10709984  0.82488564    -0.72400
O844        O  0.61603373  0.07238119  0.87361346    -0.78000
O845        O  0.51920763  0.10024997  0.84952608    -0.76200
O846        O  0.56581579  0.10555891  0.90392397    -1.12400
O847        O  0.99616698  0.09445613  0.92209420    -0.71600
C848        C  0.99408037  0.12150087  0.93884292     0.99200
C849        C  0.63479281  0.11686580  0.94700303     0.95600
Al850      Al  0.59982554  0.11420137  0.87140348     1.55600
O851        O  0.54326036  0.08778586  0.97681700    -0.76200
C852        C  0.53825366  0.10684561  0.82116159     0.99700
C853        C  0.58975139  0.17537134  0.89587680     0.94600
O854        O  0.58439650  0.16535581  0.93006980    -0.81500
O855        O  0.91973574  0.34863875  0.06221408    -0.81000
C856        C  0.90380951  0.46537257  0.12821686     0.98400
O857        O  0.88668343  0.44034342  0.12199795    -0.70100
O858        O  0.86873638  0.39019724  0.08125134    -0.73700
Al859      Al  0.90335373  0.39855979  0.12251509     1.49000
C860        C  0.86968886  0.39664344  0.04539664     0.93600
O861        O  0.96227794  0.42682306  0.01891114    -0.79900
O862        O  0.50551783  0.41756385  0.07275659    -0.73500
Al863      Al  0.94063733  0.38938667  0.04545651     1.90100
O864        O  0.95386344  0.46268797  0.06353693    -0.72500
O865        O  0.98386552  0.41399960  0.14502176    -0.72400
O866        O  0.93645664  0.46347929  0.13395872    -0.78000
O867        O  0.93213168  0.40452454  0.16960470    -0.76200
O868        O  0.93739727  0.40811948  0.09071928    -1.12400
O869        O  0.91643453  0.35585526  0.12462745    -0.71600
C870        C  0.91310293  0.33807161  0.09573061     0.99200
C871        C  0.96318358  0.45585975  0.03023661     0.95600
Al872      Al  0.96827534  0.43736443  0.10350178     1.55600
O873        O  0.89764312  0.40512449  0.02952745    -0.76200
C874        C  0.96536764  0.40622473  0.17323661     0.99700
C875        C  0.50780452  0.39033805  0.05636979     0.94600
O876        O  0.98386490  0.37216936  0.05839534    -0.81500
O877        O  0.67029268  0.41481031  0.93223707    -0.81000
C878        C  0.65333117  0.29831017  0.86701582     0.98400
O879        O  0.63580427  0.32281299  0.87388684    -0.70100
O880        O  0.61823078  0.37269311  0.91384529    -0.73700
Al881      Al  0.65218337  0.36469843  0.87237457     1.49000
C882        C  0.61964059  0.36641975  0.94958493     0.93600
O883        O  0.71176380  0.33563928  0.97460688    -0.79900
O884        O  0.75691539  0.34542118  0.91855309    -0.73500
Al885      Al  0.69080848  0.37375205  0.94889324     1.90100
O886        O  0.70445378  0.30043995  0.92889099    -0.72500
O887        O  0.73240965  0.35122481  0.84782846    -0.72400
O888        O  0.68551647  0.30079741  0.85890870    -0.78000
O889        O  0.68001860  0.35923486  0.82453892    -0.76200
O890        O  0.68700728  0.35549527  0.90337250    -1.12400
O891        O  0.66490085  0.40741222  0.86989486    -0.71600
C892        C  0.66270107  0.42524865  0.89885254     0.99200
C893        C  0.71290838  0.30673188  0.96263522     0.95600
Al894      Al  0.71776693  0.32672526  0.88922691     1.55600
O895        O  0.64772031  0.35816023  0.96497315    -0.76200
C896        C  0.71319495  0.35899223  0.82021935     0.98900
C897        C  0.76038824  0.37235230  0.93532729     0.94600
O898        O  0.73478722  0.39098630  0.93687869    -0.81500
O899        O  0.76478396  0.12132695  0.06103859    -0.81000
C900        C  0.84825176  0.21567963  0.12444492     0.98400
O901        O  0.81614330  0.21342070  0.13280052    -0.70100
O902        O  0.79793561  0.21132422  0.06267817    -0.73700
Al903      Al  0.78379015  0.18704913  0.10371515     1.49000
C904        C  0.78973130  0.20390225  0.02916580     0.93600
O905        O  0.85221179  0.15044597  0.02941353    -0.79900
O906        O  0.83603612  0.10625156  0.12771144    -0.73500
Al907      Al  0.80912752  0.13684726  0.04715194     1.90100
O908        O  0.88248664  0.13913180  0.08112346    -0.72500
O909        O  0.82089187  0.15647051  0.17001604    -0.72400
O910        O  0.86549337  0.19077174  0.11869334    -0.78000
O911        O  0.76864272  0.16449116  0.14616941    -0.76200
O912        O  0.81389405  0.15712534  0.09127747    -1.12400
O913        O  0.74433511  0.16840997  0.07545363    -0.71600
C914        C  0.74001988  0.14089297  0.06058369     0.99200
C915        C  0.88057858  0.14325262  0.04489656     0.95600
Al916      Al  0.84878960  0.14891136  0.12251931     1.55600
O917        O  0.78940690  0.17445589  0.01907617    -0.76200
C918        C  0.78770422  0.15773751  0.17427649     0.99700
C919        C  0.83710691  0.08715245  0.09985638     0.94600
O920        O  0.82876705  0.09623016  0.06614515    -0.81500
O921        O  0.98400004  0.14468302  0.55807305    -0.81000
C922        C  0.90395799  0.05223542  0.62866141     0.98400
O923        O  0.93636446  0.05444016  0.63562824    -0.70100
O924        O  0.95363527  0.05401099  0.56485104    -0.73700
Al925      Al  0.96806651  0.08017299  0.60473983     1.49000
C926        C  0.96088803  0.06084692  0.53091006     0.93600
O927        O  0.89627719  0.11263473  0.53274737    -0.79900
O928        O  0.91710317  0.16173754  0.62763068    -0.73500
Al929      Al  0.93977999  0.12790573  0.54725958     1.90100
O930        O  0.86837771  0.12790947  0.58486459    -0.72500
O931        O  0.93238272  0.11234100  0.67155401    -0.72400
O932        O  0.88645175  0.07703791  0.62325015    -0.78000
O933        O  0.98402678  0.10420258  0.64619922    -0.76200
O934        O  0.93718166  0.10936046  0.59243380    -1.12400
O935        O  0.50661794  0.09904272  0.57298371    -0.71600
C936        C  0.50931687  0.12610809  0.55665253     0.99200
C937        C  0.86889785  0.12198256  0.54891662     0.95600
Al938      Al  0.90344211  0.11890105  0.62492983     1.55600
O939        O  0.95967580  0.08991827  0.51990324    -0.76200
C940        C  0.96559714  0.11096562  0.67495793     0.99700
C941        C  0.91351169  0.17971546  0.59905229     0.94600
O942        O  0.92000863  0.16913492  0.56529669    -0.81500
O943        O  0.58129882  0.35125556  0.43060833    -0.81000
C944        C  0.59508636  0.46894754  0.36867992     0.98400
O945        O  0.61266596  0.44426949  0.37407948    -0.70100
O946        O  0.63149729  0.39454772  0.41367252    -0.73700
Al947      Al  0.59733659  0.40218737  0.37189040     1.49000
C948        C  0.62937667  0.40008057  0.44974448     0.93600
O949        O  0.53615768  0.42777963  0.47524232    -0.79900
O950        O  0.99303088  0.41876216  0.41853469    -0.73500
Al951      Al  0.55890644  0.39120066  0.44799325     1.90100
O952        O  0.54311969  0.46433275  0.43133282    -0.72500
O953        O  0.51683774  0.41543912  0.34768517    -0.72400
O954        O  0.56266875  0.46657545  0.36157810    -0.78000
O955        O  0.56929520  0.40774091  0.32419181    -0.76200
O956        O  0.56227847  0.41036313  0.40314572    -1.12400
O957        O  0.58590302  0.35898135  0.36843789    -0.71600
C958        C  0.58931457  0.34115671  0.39712585     0.99200
C959        C  0.53470933  0.45691342  0.46473483     0.95600
Al960      Al  0.53082379  0.43883809  0.39033912     1.55600
O961        O  0.60093414  0.40823937  0.46456984    -0.76200
C962        C  0.53610289  0.40838563  0.31977927     0.99700
C963        C  0.99062742  0.39152287  0.43468787     0.94600
O964        O  0.51609885  0.37271369  0.43469151    -0.81500
O965        O  0.83052389  0.42057289  0.56522031    -0.81000
C966        C  0.84624285  0.30194799  0.62520682     0.98400
O967        O  0.86378945  0.32676185  0.61938763    -0.70100
O968        O  0.88205069  0.37775499  0.58122542    -0.73700
Al969      Al  0.84748774  0.36874630  0.62257451     1.49000
C970        C  0.88027582  0.37230206  0.54512114     0.93600
O971        O  0.78874171  0.34205814  0.51869633    -0.79900
O972        O  0.74331009  0.34993383  0.57381921    -0.73500
Al973      Al  0.80958864  0.37971494  0.54647465     1.90100
O974        O  0.79667145  0.30602540  0.56294596    -0.72500
O975        O  0.76669803  0.35408370  0.64532888    -0.72400
O976        O  0.81396993  0.30428028  0.63306443    -0.78000
O977        O  0.81873804  0.36212573  0.66991274    -0.76200
O978        O  0.81296999  0.36024474  0.59101470    -1.12400
O979        O  0.83473092  0.41136923  0.62698706    -0.71600
C980        C  0.83777582  0.43019749  0.59923664     0.99200
C981        C  0.78833145  0.31287132  0.52946795     0.95600
Al982      Al  0.78215214  0.33085625  0.60328198     1.55600
O983        O  0.85200400  0.36446789  0.52987714    -0.76200
C984        C  0.78542481  0.36133174  0.67364945     0.99700
C985        C  0.74062546  0.37720815  0.55795231     0.94600
O986        O  0.76587189  0.39638545  0.55915129    -0.81500
O987        O  0.73653063  0.12479332  0.43441471    -0.81000
C988        C  0.65669738  0.21964207  0.37020492     0.98400
O989        O  0.68880556  0.21694582  0.36200670    -0.70100
O990        O  0.70580339  0.21506039  0.43232226    -0.73700
Al991      Al  0.72012669  0.19029080  0.39181145     1.49000
C992        C  0.71319701  0.20780330  0.46599625     0.93600
O993        O  0.64990484  0.15506558  0.46516260    -0.79900
O994        O  0.66597890  0.10983028  0.36715733    -0.73500
Al995      Al  0.69267056  0.14086301  0.44794810     1.90100
O996        O  0.61994063  0.14364493  0.41308245    -0.72500
O997        O  0.68311799  0.15954790  0.32524641    -0.72400
O998        O  0.63882014  0.19496658  0.37576357    -0.78000
O999        O  0.73538240  0.16706284  0.34970169    -0.76200
O1000       O  0.68902026  0.16085458  0.40382211    -1.12400
O1001       O  0.75874311  0.17145943  0.42130869    -0.71600
C1002       C  0.76153689  0.14410645  0.43677926     0.99200
C1003       C  0.62167750  0.14768183  0.44938130     0.95600
Al1004     Al  0.65435870  0.15280704  0.37215920     1.55600
O1005       O  0.71284582  0.17848225  0.47628247    -0.76200
C1006       C  0.71639183  0.16010682  0.32145578     0.99700
C1007       C  0.66392241  0.09094607  0.39501857     0.94600
O1008       O  0.67228804  0.10031334  0.42874828    -0.81500
C1009       C  0.78106397  0.25471970  0.51815770     0.24400
C1010       C  0.77202304  0.28636554  0.50806149    -0.23700
C1011       C  0.74093519  0.29154090  0.48813414     0.19300
C1012       C  0.71922577  0.26581059  0.47884408     0.24400
C1013       C  0.72850355  0.23414812  0.48851890    -0.23600
C1014       C  0.75932766  0.22901183  0.50891510     0.19300
F1015       F  0.76936593  0.19899298  0.51824313    -0.13600
F1016       F  0.81068844  0.24877422  0.53820845    -0.15900
F1017       F  0.68951489  0.27170101  0.45892857    -0.15900
F1018       F  0.73071374  0.32157867  0.47914613    -0.13600
C1019       C  0.96623507  0.36385669  0.49296700     0.24400
C1020       C  0.96097633  0.38379235  0.46059253    -0.23700
C1021       C  0.92917605  0.39984536  0.45714907     0.19300
C1022       C  0.90358299  0.39660605  0.48549283     0.24400
C1023       C  0.90945356  0.37776526  0.51837384    -0.23600
C1024       C  0.94079206  0.36121399  0.52171838     0.19300
F1025       F  0.94636037  0.34179519  0.55219986    -0.13600
F1026       F  0.99647142  0.34762170  0.49770926    -0.15900
F1027       F  0.87285632  0.41211837  0.48088343    -0.15900
F1028       F  0.92287113  0.41880678  0.42641897    -0.13600
C1029       C  0.67757799  0.37423495  0.53911670     0.24400
C1030       C  0.71166784  0.38418297  0.53119853    -0.23700
C1031       C  0.71900462  0.39831871  0.49511811     0.19300
C1032       C  0.69264647  0.40276781  0.46792307     0.24400
C1033       C  0.65837600  0.39394727  0.47654824    -0.23600
C1034       C  0.65108916  0.37950136  0.51236969     0.19300
F1035       F  0.61824571  0.36975488  0.52124892    -0.13600
F1036       F  0.66983644  0.35963293  0.57283020    -0.15900
F1037       F  0.70052269  0.41620065  0.43353983    -0.15900
F1038       F  0.75203177  0.40672298  0.48532145    -0.13600
C1039       C  0.62044415  0.05621857  0.36062414     0.24400
C1040       C  0.64771045  0.05921166  0.38783979    -0.23700
C1041       C  0.65765489  0.03222970  0.40859587     0.19300
C1042       C  0.64142762  0.00274840  0.40172944     0.24400
C1043       C  0.61417609  0.99971065  0.37451959    -0.23600
C1044       C  0.60358718  0.02687836  0.35444561     0.19300
F1045       F  0.57717219  0.02503209  0.32861795    -0.13600
F1046       F  0.60916034  0.08202155  0.34077826    -0.15900
F1047       F  0.64521607  0.47768742  0.42718876    -0.15900
F1048       F  0.68332404  0.03428397  0.43528988    -0.13600
C1049       C  0.61283785  0.25362734  0.40430249     0.24400
C1050       C  0.64010153  0.25108273  0.37700428    -0.23700
C1051       C  0.65180086  0.27877913  0.35849949     0.19300
C1052       C  0.63508469  0.30794074  0.36519633     0.24400
C1053       C  0.60675732  0.31009307  0.39114767    -0.23600
C1054       C  0.59648430  0.28287257  0.41138276     0.19300
F1055       F  0.57023850  0.28444479  0.43752590    -0.13600
F1056       F  0.60265127  0.22791965  0.42519012    -0.15900
F1057       F  0.64730453  0.33434703  0.34700570    -0.15900
F1058       F  0.67917474  0.27765221  0.33374882    -0.13600
C1059       C  0.87569931  0.46596293  0.63990925     0.24400
C1060       C  0.85367238  0.46204269  0.60743551    -0.23700
C1061       C  0.84902539  0.48810152  0.58284550     0.19300
C1062       C  0.86257383  0.01742536  0.59221117     0.24400
C1063       C  0.88678716  0.02100254  0.62249463    -0.23600
C1064       C  0.89254482  0.49505365  0.64732221     0.19300
F1065       F  0.91357566  0.49791399  0.67849388    -0.13600
F1066       F  0.88201660  0.44131244  0.66409991    -0.15900
F1067       F  0.85476217  0.04251087  0.56925593    -0.15900
F1068       F  0.82863722  0.48534810  0.55118285    -0.13600
C1069       C  0.90359151  0.23748930  0.58139536     0.24400
C1070       C  0.89727203  0.21150837  0.60575319    -0.23700
C1071       C  0.87312499  0.21535785  0.63629431     0.19300
C1072       C  0.85627653  0.24451875  0.64262976     0.24400
C1073       C  0.86345211  0.27068074  0.61907774    -0.23600
C1074       C  0.88708795  0.26683656  0.58816565     0.19300
F1075       F  0.89333377  0.29130341  0.56358896    -0.13600
F1076       F  0.92587436  0.23460632  0.55124273    -0.15900
F1077       F  0.83330116  0.24726885  0.67215083    -0.15900
F1078       F  0.86476726  0.19049541  0.65949575    -0.13600
C1079       C  0.50866836  0.04090501  0.48919541     0.24400
C1080       C  0.97707790  0.03480840  0.50853568    -0.23700
C1081       C  0.96662614  0.00296337  0.51567949     0.19300
C1082       C  0.98676078  0.47783264  0.50427888     0.24400
C1083       C  0.51789885  0.48258411  0.48697485    -0.23600
C1084       C  0.53009353  0.01520133  0.47941903     0.19300
F1085       F  0.56100000  0.02128953  0.46170369    -0.13600
F1086       F  0.52035799  0.07107501  0.48303818    -0.15900
F1087       F  0.97543861  0.44756001  0.51058234    -0.15900
F1088       F  0.93577652  0.99678837  0.53346157    -0.13600
C1089       C  0.82060019  0.15577609  0.46472660     0.24400
C1090       C  0.78995252  0.13734348  0.46448886    -0.23700
C1091       C  0.78422297  0.11544782  0.49490102     0.19300
C1092       C  0.80881277  0.11181613  0.52418447     0.24400
C1093       C  0.83964966  0.12956769  0.52347037    -0.23600
C1094       C  0.84525779  0.15174761  0.49377656     0.19300
F1095       F  0.87497246  0.16947435  0.49284295    -0.13600
F1096       F  0.82680579  0.17768136  0.43687537    -0.15900
F1097       F  0.80289917  0.09037032  0.55260442    -0.15900
F1098       F  0.75436541  0.09804423  0.49714622    -0.13600
C1099       C  0.57131190  0.11839322  0.53559288     0.24400
C1100       C  0.53898127  0.13329653  0.53069415    -0.23700
C1101       C  0.53352159  0.15200532  0.49739441     0.19300
C1102       C  0.55979173  0.15558260  0.46979453     0.24400
C1103       C  0.59215609  0.14126678  0.47529424    -0.23600
C1104       C  0.59775092  0.12261422  0.50839036     0.19300
F1105       F  0.62887750  0.10804460  0.51414362    -0.13600
F1106       F  0.57736856  0.09975949  0.56668324    -0.15900
F1107       F  0.55389299  0.17364444  0.43820650    -0.15900
F1108       F  0.00325251  0.16713269  0.49283302    -0.13600
C1109       C  0.77123669  0.15339813  0.28196734     0.24400
C1110       C  0.73430332  0.15474254  0.28388514    -0.23700
C1111       C  0.71548426  0.15331096  0.24944526     0.19300
C1112       C  0.73295013  0.15256136  0.21411507     0.24400
C1113       C  0.76990325  0.15352956  0.21211526    -0.23600
C1114       C  0.78873033  0.15303780  0.24659496     0.19300
F1115       F  0.82411666  0.15356435  0.24630020    -0.13600
F1116       F  0.79087667  0.15331268  0.31439604    -0.15900
F1117       F  0.71323174  0.15186078  0.18175122    -0.15900
F1118       F  0.68010313  0.15389756  0.24968297    -0.13600
C1119       C  0.76754914  0.36921794  0.78103195     0.24400
C1120       C  0.73079821  0.36555489  0.78268942    -0.23700
C1121       C  0.71221836  0.36544580  0.74804016     0.19300
C1122       C  0.72998041  0.36621844  0.71279894     0.24400
C1123       C  0.76700795  0.36655455  0.71114988    -0.23600
C1124       C  0.78536704  0.36948276  0.74580147     0.19300
F1125       F  0.82068572  0.37147819  0.74585677    -0.13600
F1126       F  0.78669859  0.37168783  0.81369180    -0.15900
F1127       F  0.71053977  0.36561495  0.68022545    -0.15900
F1128       F  0.67690278  0.36310809  0.74801972    -0.13600
C1129       C  0.78032748  0.26207245  0.01887553     0.24400
C1130       C  0.77455215  0.23019444  0.00647420    -0.23700
C1131       C  0.74727384  0.22403799  0.98089677     0.19300
C1132       C  0.72471562  0.24855793  0.97021929     0.24400
C1133       C  0.72992256  0.28029728  0.98341739    -0.23600
C1134       C  0.75783933  0.28661076  0.00814769     0.19300
F1135       F  0.76410768  0.31669168  0.02108014    -0.13600
F1136       F  0.80745460  0.26942661  0.04241313    -0.15900
F1137       F  0.69781830  0.24123280  0.94637674    -0.15900
F1138       F  0.74149303  0.19405493  0.96738768    -0.13600
C1139       C  0.98291520  0.39835797  0.28040775     0.24400
C1140       C  0.51854008  0.40292185  0.28190296    -0.23700
C1141       C  0.53719673  0.40380094  0.24726796     0.19300
C1142       C  0.51964829  0.40307795  0.21193656     0.24400
C1143       C  0.98373874  0.40140026  0.21062198    -0.23600
C1144       C  0.96527866  0.39818571  0.24517582     0.19300
F1145       F  0.92994224  0.39612782  0.24518995    -0.13600
F1146       F  0.96358758  0.39572553  0.31296685    -0.15900
F1147       F  0.53922375  0.40472481  0.17946003    -0.15900
F1148       F  0.57244828  0.40689885  0.24736796    -0.13600
C1149       C  0.56142133  0.35211863  0.97686224     0.24400
C1150       C  0.59025770  0.37252386  0.97555679    -0.23700
C1151       C  0.59365708  0.39691495  0.00317944     0.19300
C1152       C  0.56798205  0.40160014  0.03112291     0.24400
C1153       C  0.53834670  0.38178541  0.03212911    -0.23600
C1154       C  0.53572503  0.35651085  0.00495876     0.19300
F1155       F  0.50780935  0.33646154  0.00459735    -0.13600
F1156       F  0.55838763  0.32766576  0.95135892    -0.15900
F1157       F  0.57180332  0.42605517  0.05649393    -0.15900
F1158       F  0.62193674  0.41651854  0.00280558    -0.13600
C1159       C  0.81980181  0.41561669  0.00584251     0.24400
C1160       C  0.84000060  0.39039869  0.01967894    -0.23700
C1161       C  0.83722108  0.36028975  0.00195212     0.19300
C1162       C  0.81343740  0.35503604  0.97207011     0.24400
C1163       C  0.79142816  0.37975593  0.95959284    -0.23600
C1164       C  0.79548219  0.41036189  0.97641119     0.19300
F1165       F  0.77577186  0.43528571  0.96455308    -0.13600
F1166       F  0.82397506  0.44545146  0.02055372    -0.15900
F1167       F  0.81121275  0.32536858  0.95639213    -0.15900
F1168       F  0.85824854  0.33602299  0.01304226    -0.13600
C1169       C  0.90254044  0.02580396  0.13244435     0.24400
C1170       C  0.88499068  0.99687098  0.12543166    -0.23700
C1171       C  0.85084092  0.99801871  0.10980129     0.19300
C1172       C  0.83539216  0.02721407  0.10030237     0.24400
C1173       C  0.85320114  0.05581086  0.10708062    -0.23600
C1174       C  0.88668693  0.05488878  0.12369998     0.19300
F1175       F  0.90452200  0.08235847  0.13074985    -0.13600
F1176       F  0.93523879  0.02609189  0.14732781    -0.15900
F1177       F  0.80280110  0.02756179  0.08519800    -0.15900
F1178       F  0.83105184  0.47089222  0.10880442    -0.13600
C1179       C  0.90977594  0.27886684  0.08475345     0.24400
C1180       C  0.89673048  0.30660204  0.10184663    -0.23700
C1181       C  0.86718806  0.30451549  0.12594669     0.19300
C1182       C  0.85140309  0.27510507  0.13351012     0.24400
C1183       C  0.86532588  0.24700645  0.11791633    -0.23600
C1184       C  0.89450157  0.24924786  0.09301184     0.19300
F1185       F  0.90769037  0.22287969  0.07557169    -0.13600
F1186       F  0.93761986  0.28035845  0.06068482    -0.15900
F1187       F  0.82253160  0.27421199  0.15611097    -0.15900
F1188       F  0.85294166  0.33123145  0.14152697    -0.13600
C1189       C  0.96533887  0.11678550  0.74737436     0.24400
C1190       C  0.98388400  0.11473186  0.71264984    -0.23700
C1191       C  0.52221563  0.11126017  0.71355702     0.19300
C1192       C  0.53960179  0.11035921  0.74887627     0.24400
C1193       C  0.52086199  0.11231059  0.78345985    -0.23600
C1194       C  0.98288735  0.11538357  0.78265316     0.19300
F1195       F  0.96358265  0.11691990  0.81534173    -0.13600
F1196       F  0.93003708  0.11897502  0.74742133    -0.15900
F1197       F  0.57466639  0.10604937  0.74903833    -0.15900
F1198       F  0.54174912  0.10834745  0.68114988    -0.13600
C1199       C  0.97161297  0.01281190  0.01863498     0.24400
C1200       C  0.98142432  0.48167728  0.00985519    -0.23700
C1201       C  0.51205915  0.47643057  0.99100712     0.19300
C1202       C  0.53439304  0.00137517  0.98146396     0.24400
C1203       C  0.52474957  0.03330092  0.98893062    -0.23600
C1204       C  0.49293319  0.03936027  0.00732749     0.19300
F1205       F  0.98471313  0.06819291  0.01651988    -0.13600
F1206       F  0.94163810  0.02005741  0.03756531    -0.15900
F1207       F  0.56492851  0.99474875  0.96330782    -0.15900
F1208       F  0.52221930  0.44603470  0.98359861    -0.13600
C1209       C  0.61836422  0.26173783  0.90795639     0.24400
C1210       C  0.63646697  0.26714204  0.87325702    -0.23700
C1211       C  0.63785556  0.24298377  0.84564459     0.19300
C1212       C  0.62160560  0.21362828  0.85257582     0.24400
C1213       C  0.60384058  0.20776375  0.88771902    -0.23600
C1214       C  0.60232666  0.23229813  0.91520370     0.19300
F1215       F  0.58549249  0.22783181  0.94911032    -0.13600
F1216       F  0.61723352  0.28475865  0.93550534    -0.15900
F1217       F  0.62434500  0.19067671  0.82508707    -0.15900
F1218       F  0.65447678  0.24797026  0.81171515    -0.13600
C1219       C  0.61572645  0.45876079  0.87118605     0.24400
C1220       C  0.64672638  0.45680033  0.89285693    -0.23700
C1221       C  0.66247586  0.48483660  0.90609557     0.19300
C1222       C  0.64804175  0.01473113  0.89400791     0.24400
C1223       C  0.61537300  0.01612009  0.87499028    -0.23600
C1224       C  0.60062920  0.48828723  0.86309112     0.19300
F1225       F  0.57047131  0.48908077  0.84275070    -0.13600
F1226       F  0.59960050  0.43186757  0.85828695    -0.15900
F1227       F  0.66562265  0.04174881  0.90370982    -0.15900
F1228       F  0.69242366  0.48354527  0.92672472    -0.13600
C1229       C  0.70356775  0.10265279  0.02173954     0.24400
C1230       C  0.70977994  0.13399037  0.03521567    -0.23700
C1231       C  0.69166804  0.15933748  0.01793186     0.19300
C1232       C  0.67008012  0.15379124  0.98623614     0.24400
C1233       C  0.66470596  0.12268991  0.97229992    -0.23600
C1234       C  0.68072301  0.09707719  0.99105794     0.19300
F1235       F  0.67372097  0.06659860  0.98005465    -0.13600
F1236       F  0.71950230  0.07734525  0.03835890    -0.15900
F1237       F  0.65313387  0.17875989  0.97009344    -0.15900
F1238       F  0.69555692  0.18974515  0.03087949    -0.13600
C1239       C  0.96991550  0.14652443  0.99879253     0.24400
C1240       C  0.96421695  0.12913968  0.96432530    -0.23700
C1241       C  0.93117996  0.11590242  0.95760991     0.19300
C1242       C  0.90435750  0.12026058  0.98433235     0.24400
C1243       C  0.91019678  0.13737113  0.01877876    -0.23600
C1244       C  0.94324240  0.15017404  0.02594752     0.19300
F1245       F  0.94954085  0.16671909  0.05882916    -0.13600
F1246       F  0.50275411  0.15756347  0.00946015    -0.15900
F1247       F  0.87264008  0.10712699  0.97685214    -0.15900
F1248       F  0.92479668  0.09878641  0.92515766    -0.13600
O1249       O  0.52119809  0.64278781  0.93958781    -0.81000
C1250       C  0.59955448  0.54803654  0.87031839     0.98400
O1251       O  0.56708391  0.55038847  0.86343818    -0.70100
O1252       O  0.54851113  0.55173847  0.93341595    -0.73700
Al1253     Al  0.53539874  0.57729483  0.89305809     1.49000
C1254       C  0.54164767  0.55912224  0.96731362     0.93600
O1255       O  0.60753085  0.60861824  0.96520116    -0.79900
O1256       O  0.58744724  0.65702732  0.86972766    -0.73500
Al1257     Al  0.56470212  0.62513354  0.95050019     1.90100
O1258       O  0.63589012  0.62429185  0.91371661    -0.72500
O1259       O  0.57301748  0.60744118  0.82644915    -0.72400
O1260       O  0.61735616  0.57285162  0.87566836    -0.78000
O1261       O  0.52067390  0.60079858  0.85076902    -0.76200
O1262       O  0.56686656  0.60600360  0.90547119    -1.12400
O1263       O  0.99726100  0.59597049  0.92296539    -0.71600
C1264       C  0.99529028  0.62299602  0.93978594     0.99200
C1265       C  0.63531115  0.61718191  0.94929584     0.95600
Al1266     Al  0.60107217  0.61467011  0.87331284     1.55600
O1267       O  0.54351744  0.58823944  0.97809144    -0.76200
C1268       C  0.53991286  0.60711671  0.82247016     0.99700
C1269       C  0.59063277  0.67581347  0.89769297     0.94600
O1270       O  0.58540281  0.66575259  0.93188197    -0.81500
O1271       O  0.91828063  0.84856225  0.06486506    -0.81000
C1272       C  0.90317718  0.96568642  0.12949593     0.98400
O1273       O  0.88602333  0.94052821  0.12427330    -0.70100
O1274       O  0.86764944  0.89022693  0.08419710    -0.73700
Al1275     Al  0.90271627  0.89875912  0.12500571     1.49000
C1276       C  0.86827919  0.89682629  0.04836650     0.93600
O1277       O  0.96077060  0.92607933  0.02019040    -0.79900
O1278       O  0.50753082  0.91938567  0.07519913    -0.73500
Al1279     Al  0.93916196  0.88908440  0.04747492     1.90100
O1280       O  0.95289686  0.96239743  0.06433302    -0.72500
O1281       O  0.98334456  0.91461535  0.14641008    -0.72400
O1282       O  0.93588095  0.96396304  0.13486904    -0.78000
O1283       O  0.93199929  0.90502885  0.17178673    -0.76200
O1284       O  0.93647868  0.90808458  0.09265585    -1.12400
O1285       O  0.91573276  0.85601272  0.12729984    -0.71600
C1286       C  0.91217817  0.83808935  0.09854165     0.99200
C1287       C  0.96192433  0.95520898  0.03103504     0.95600
Al1288     Al  0.96743749  0.93744449  0.10465013     1.55600
O1289       O  0.89613758  0.90512864  0.03218768    -0.76200
C1290       C  0.96525952  0.90701367  0.17499053     0.99700
C1291       C  0.51048726  0.89181842  0.05991959     0.94600
O1292       O  0.98250194  0.87171345  0.05976223    -0.81500
O1293       O  0.67066244  0.91539371  0.93345765    -0.81000
C1294       C  0.65369979  0.79887372  0.86860605     0.98400
O1295       O  0.63618449  0.82336385  0.87554788    -0.70100
O1296       O  0.61885256  0.87334169  0.91550467    -0.73700
Al1297     Al  0.65253096  0.86524897  0.87375379     1.49000
C1298       C  0.62051330  0.86718565  0.95126749     0.93600
O1299       O  0.71285808  0.83626601  0.97564768    -0.79900
O1300       O  0.75743941  0.84610719  0.91943486    -0.73500
Al1301     Al  0.69153098  0.87440216  0.95002411     1.90100
O1302       O  0.70491875  0.80121534  0.93000190    -0.72500
O1303       O  0.73269080  0.85178174  0.84885650    -0.72400
O1304       O  0.68581947  0.80139568  0.86019065    -0.78000
O1305       O  0.68021600  0.85967345  0.82569432    -0.76200
O1306       O  0.68750982  0.85613734  0.90454127    -1.12400
O1307       O  0.66514404  0.90797662  0.87110870    -0.71600
C1308       C  0.66275793  0.92574571  0.90011065     0.99200
C1309       C  0.71400438  0.80737664  0.96354662     0.95600
Al1310     Al  0.71818844  0.82736797  0.89029337     1.55600
O1311       O  0.64861304  0.85868426  0.96641204    -0.76200
C1312       C  0.71340296  0.85938453  0.82125702     0.98900
C1313       C  0.76088271  0.87303683  0.93622595     0.94600
O1314       O  0.73534818  0.89175405  0.93754876    -0.81500
O1315       O  0.76487726  0.62174229  0.06243419    -0.81000
C1316       C  0.84881548  0.71505199  0.12696051     0.98400
O1317       O  0.81681748  0.71259040  0.13564637    -0.70100
O1318       O  0.79821732  0.71163672  0.06550334    -0.73700
Al1319     Al  0.78435917  0.68676168  0.10614506     1.49000
C1320       C  0.79023827  0.70458817  0.03178881     0.93600
O1321       O  0.85228597  0.65085289  0.03036619    -0.79900
O1322       O  0.83689119  0.60557485  0.12800630    -0.73500
Al1323     Al  0.80925999  0.63723868  0.04838978     1.90100
O1324       O  0.88300765  0.63928452  0.08161669    -0.72500
O1325       O  0.82179803  0.65507859  0.17145959    -0.72400
O1326       O  0.86608523  0.69027585  0.12052110    -0.78000
O1327       O  0.76941660  0.66352779  0.14815672    -0.76200
O1328       O  0.81438982  0.65697046  0.09281316    -1.12400
O1329       O  0.74477402  0.66876526  0.07784503    -0.71600
C1330       C  0.74019976  0.64142079  0.06271641     0.99200
C1331       C  0.88087117  0.64380580  0.04545567     0.95600
Al1332     Al  0.84949811  0.64832648  0.12357073     1.55600
O1333       O  0.78971457  0.67525160  0.02125672    -0.76200
C1334       C  0.78861960  0.65628427  0.17596412     0.99700
C1335       C  0.83753365  0.58683677  0.09980329     0.94600
O1336       O  0.82886584  0.59634680  0.06639126    -0.81500
O1337       O  0.98478751  0.64455859  0.55789530    -0.81000
C1338       C  0.90509840  0.55196936  0.62952584     0.98400
O1339       O  0.93766848  0.55374629  0.63575895    -0.70100
O1340       O  0.95390568  0.55411794  0.56473108    -0.73700
Al1341     Al  0.96916950  0.57972473  0.60470359     1.49000
C1342       C  0.96042198  0.56120949  0.53069633     0.93600
O1343       O  0.89634391  0.61295629  0.53472461    -0.79900
O1344       O  0.91928095  0.66152052  0.62945852    -0.73500
Al1345     Al  0.94018802  0.62806473  0.54825429     1.90100
O1346       O  0.86950609  0.62823477  0.58749402    -0.72500
O1347       O  0.93484042  0.61163548  0.67257039    -0.72400
O1348       O  0.88782025  0.57700189  0.62482549    -0.78000
O1349       O  0.98604777  0.60313117  0.64636486    -0.76200
O1350       O  0.93836333  0.60925238  0.59336982    -1.12400
O1351       O  0.50657274  0.59740945  0.57414259    -0.71600
C1352       C  0.50958996  0.62446557  0.55779278     0.99200
C1353       C  0.86927524  0.62217980  0.55159181     0.95600
Al1354     Al  0.90522643  0.61875089  0.62664554     1.55600
O1355       O  0.95928247  0.59034673  0.52008621    -0.76200
C1356       C  0.96804361  0.60983343  0.67550067     0.99700
C1357       C  0.91521604  0.67965917  0.60109217     0.94600
O1358       O  0.92101195  0.66920802  0.56713139    -0.81500
O1359       O  0.58365395  0.85122183  0.43312881    -0.81000
C1360       C  0.59677348  0.96824525  0.36926031     0.98400
O1361       O  0.61457915  0.94376662  0.37515653    -0.70100
O1362       O  0.63370403  0.89432329  0.41515547    -0.73700
Al1363     Al  0.59944524  0.90156764  0.37355004     1.49000
C1364       C  0.63172812  0.90042183  0.45106519     0.93600
O1365       O  0.53859948  0.92853879  0.47664653    -0.79900
O1366       O  0.99476809  0.91802486  0.42019828    -0.73500
Al1367     Al  0.56132412  0.89148905  0.45006396     1.90100
O1368       O  0.54488996  0.96432533  0.43171969    -0.72500
O1369       O  0.51881946  0.91367451  0.34933881    -0.72400
O1370       O  0.56438745  0.96542973  0.36203226    -0.78000
O1371       O  0.57143782  0.90667056  0.32589087    -0.76200
O1372       O  0.56437042  0.90993287  0.40479192    -1.12400
O1373       O  0.58811092  0.85831444  0.37076411    -0.71600
C1374       C  0.59144721  0.84074206  0.39970482     0.99200
C1375       C  0.53673557  0.95746927  0.46535556     0.95600
Al1376     Al  0.53268665  0.93798050  0.39146435     1.55600
O1377       O  0.60340365  0.90894159  0.46583055    -0.76200
C1378       C  0.53826291  0.90686248  0.32145688     0.99700
C1379       C  0.99262934  0.89082936  0.43644437     0.94600
O1380       O  0.51844551  0.87264948  0.43778528    -0.81500
O1381       O  0.83273592  0.91923122  0.56556619    -0.81000
C1382       C  0.84743745  0.80152328  0.62757740     0.98400
O1383       O  0.86507870  0.82628795  0.62185455    -0.70100
O1384       O  0.88382759  0.87677287  0.58299714    -0.73700
Al1385     Al  0.84890739  0.86825553  0.62418254     1.49000
C1386       C  0.88237865  0.87092190  0.54695203     0.93600
O1387       O  0.79078541  0.84074868  0.52004873    -0.79900
O1388       O  0.74504322  0.84961268  0.57487529    -0.73500
Al1389     Al  0.81178809  0.87842381  0.54746969     1.90100
O1390       O  0.79789684  0.80500224  0.56478420    -0.72500
O1391       O  0.76797102  0.85400102  0.64641653    -0.72400
O1392       O  0.81506894  0.80384208  0.63497541    -0.78000
O1393       O  0.81977854  0.86210914  0.67142924    -0.76200
O1394       O  0.81465680  0.85944936  0.59235821    -1.12400
O1395       O  0.83628518  0.91098414  0.62766392    -0.71600
C1396       C  0.83953565  0.92932781  0.59944055     0.99200
C1397       C  0.79009302  0.81165133  0.53108313     0.95600
Al1398     Al  0.78351873  0.83037202  0.60474455     1.55600
O1399       O  0.85427867  0.86267885  0.53156843    -0.76200
C1400       C  0.78644610  0.86120412  0.67492502     0.99700
C1401       C  0.74278781  0.87685294  0.55882440     0.94600
O1402       O  0.76833684  0.89564584  0.55970145    -0.81500
O1403       O  0.73785797  0.62362084  0.43589500    -0.81000
C1404       C  0.65761514  0.71860419  0.37229858     0.98400
O1405       O  0.68971028  0.71590213  0.36399371    -0.70100
O1406       O  0.70660798  0.71368757  0.43423365    -0.73700
Al1407     Al  0.72112325  0.68921729  0.39363748     1.49000
C1408       C  0.71453353  0.70651845  0.46776600     0.93600
O1409       O  0.65093959  0.65335846  0.46705294    -0.79900
O1410       O  0.66767088  0.60899824  0.36849796    -0.73500
Al1411     Al  0.69389039  0.63948783  0.44959883     1.90100
O1412       O  0.62115817  0.64223718  0.41471959    -0.72500
O1413       O  0.68424889  0.65878528  0.32692618    -0.72400
O1414       O  0.63977411  0.69388579  0.37780264    -0.78000
O1415       O  0.73650830  0.66617210  0.35139433    -0.76200
O1416       O  0.69014586  0.65970690  0.40557080    -1.12400
O1417       O  0.75977337  0.67040979  0.42299218    -0.71600
C1418       C  0.76275461  0.64305571  0.43840078     0.99200
C1419       C  0.62274254  0.64606827  0.45106770     0.95600
Al1420     Al  0.65556815  0.65175812  0.37385212     1.55600
O1421       O  0.71414531  0.67718467  0.47813396    -0.76200
C1422       C  0.71752557  0.65917902  0.32315253     0.99700
C1423       C  0.66516995  0.58991791  0.39607986     0.94600
O1424       O  0.67347115  0.59897602  0.42998279    -0.81500
C1425       C  0.78276413  0.75343121  0.52003043     0.24400
C1426       C  0.77413207  0.78506640  0.50947714    -0.23700
C1427       C  0.74358166  0.79028625  0.48862574     0.19300
C1428       C  0.72173733  0.76466926  0.47931005     0.24400
C1429       C  0.73037919  0.73299201  0.48976916    -0.23600
C1430       C  0.76091215  0.72779312  0.51069450     0.19300
F1431       F  0.77045166  0.69780235  0.52070404    -0.13600
F1432       F  0.81206740  0.74745899  0.54063065    -0.15900
F1433       F  0.69246884  0.77071642  0.45868107    -0.15900
F1434       F  0.73394477  0.82030884  0.47877976    -0.13600
C1435       C  0.96840576  0.86295825  0.49473081     0.24400
C1436       C  0.96309004  0.88307377  0.46253578    -0.23700
C1437       C  0.93136381  0.89934679  0.45948082     0.19300
C1438       C  0.90583458  0.89596375  0.48787347     0.24400
C1439       C  0.91162748  0.87667914  0.52037552    -0.23600
C1440       C  0.94294940  0.86005658  0.52345968     0.19300
F1441       F  0.94850013  0.84036287  0.55368764    -0.13600
F1442       F  0.99872490  0.84682944  0.49934134    -0.15900
F1443       F  0.87524512  0.91178602  0.48369613    -0.15900
F1444       F  0.92510635  0.91876816  0.42915594    -0.13600
C1445       C  0.67978193  0.87421047  0.54014596     0.24400
C1446       C  0.71383147  0.88430967  0.53236951    -0.23700
C1447       C  0.72113236  0.89910573  0.49666086     0.19300
C1448       C  0.69482590  0.90364746  0.46946977     0.24400
C1449       C  0.66066358  0.89434390  0.47782617    -0.23600
C1450       C  0.65335204  0.87956613  0.51341274     0.19300
F1451       F  0.62054503  0.86957304  0.52204246    -0.13600
F1452       F  0.67202231  0.85939166  0.57371459    -0.15900
F1453       F  0.70262729  0.91763228  0.43538444    -0.15900
F1454       F  0.75405911  0.90815423  0.48724464    -0.13600
C1455       C  0.62312437  0.55564071  0.35870668     0.24400
C1456       C  0.64836294  0.55849106  0.38831695    -0.23700
C1457       C  0.65525875  0.53182958  0.41112440     0.19300
C1458       C  0.63799988  0.50288055  0.40413969     0.24400
C1459       C  0.61284300  0.50006111  0.37463341    -0.23600
C1460       C  0.60526823  0.52683338  0.35233309     0.19300
F1461       F  0.58101247  0.52503485  0.32404035    -0.13600
F1462       F  0.61477618  0.58106269  0.33650548    -0.15900
F1463       F  0.65174709  0.97727750  0.42280343    -0.15900
F1464       F  0.67890694  0.53365794  0.44000826    -0.13600
C1465       C  0.61293780  0.75261897  0.40538657     0.24400
C1466       C  0.64107591  0.75012089  0.37914949    -0.23700
C1467       C  0.65392061  0.77800943  0.36198077     0.19300
C1468       C  0.63764093  0.80733415  0.36895425     0.24400
C1469       C  0.60860816  0.80950648  0.39391248    -0.23600
C1470       C  0.59699826  0.78204198  0.41275176     0.19300
F1471       F  0.56979818  0.78355342  0.43768335    -0.13600
F1472       F  0.60146211  0.72668644  0.42500926    -0.15900
F1473       F  0.65089120  0.83386623  0.35193011    -0.15900
F1474       F  0.68207029  0.77694323  0.33830570    -0.13600
C1475       C  0.87969440  0.96485437  0.63704371     0.24400
C1476       C  0.85518549  0.96121006  0.60690171    -0.23700
C1477       C  0.84721493  0.98773561  0.58424239     0.19300
C1478       C  0.86540431  0.51736758  0.59079993     0.24400
C1479       C  0.88733993  0.52104432  0.62305213    -0.23600
C1480       C  0.89550998  0.99437130  0.64447099     0.19300
F1481       F  0.91911077  0.99695087  0.67335397    -0.13600
F1482       F  0.88936937  0.93952778  0.65873095    -0.15900
F1483       F  0.86089654  0.54193901  0.56602528    -0.15900
F1484       F  0.82442939  0.98503207  0.55461740    -0.13600
C1485       C  0.90405409  0.73710001  0.58294006     0.24400
C1486       C  0.89916362  0.71147882  0.60824187    -0.23700
C1487       C  0.87629141  0.71561146  0.63992174     0.19300
C1488       C  0.85909516  0.74461986  0.64621643     0.24400
C1489       C  0.86472704  0.77033526  0.62151060    -0.23600
C1490       C  0.88729426  0.76630036  0.58971283     0.19300
F1491       F  0.89226314  0.79046163  0.56435688    -0.13600
F1492       F  0.92514096  0.73400333  0.55178980    -0.15900
F1493       F  0.83738328  0.74770298  0.67682964    -0.15900
F1494       F  0.86947573  0.69116098  0.66431899    -0.13600
C1495       C  0.50696655  0.53997253  0.49010544     0.24400
C1496       C  0.97575850  0.53529911  0.50753053    -0.23700
C1497       C  0.96550359  0.50346461  0.51501067     0.19300
C1498       C  0.98804344  0.97728475  0.50536182     0.24400
C1499       C  0.51964276  0.98343575  0.48690668    -0.23600
C1500       C  0.52829475  0.51440167  0.47980596     0.19300
F1501       F  0.55903003  0.52068900  0.46183332    -0.13600
F1502       F  0.51846895  0.57019071  0.48386835    -0.15900
F1503       F  0.97647629  0.94702533  0.51117917    -0.15900
F1504       F  0.93511597  0.49727347  0.53371822    -0.13600
C1505       C  0.81988786  0.65731295  0.46940703     0.24400
C1506       C  0.79113415  0.63654903  0.46633896    -0.23700
C1507       C  0.78674893  0.61253632  0.49462395     0.19300
C1508       C  0.81075787  0.60924111  0.52457000     0.24400
C1509       C  0.83956348  0.62961696  0.52682121    -0.23600
C1510       C  0.84382601  0.65378741  0.49926239     0.19300
F1511       F  0.87175576  0.67377229  0.50097379    -0.13600
F1512       F  0.82483924  0.68121212  0.44371892    -0.15900
F1513       F  0.80634007  0.58563320  0.55073881    -0.15900
F1514       F  0.75880241  0.59255153  0.49407044    -0.13600
C1515       C  0.57130348  0.61531786  0.53591192     0.24400
C1516       C  0.53954995  0.63150946  0.53199662    -0.23700
C1517       C  0.53486800  0.65157572  0.49970861     0.19300
C1518       C  0.56122141  0.65518254  0.47217561     0.24400
C1519       C  0.59298997  0.63955789  0.47671679    -0.23600
C1520       C  0.59787314  0.61958933  0.50879675     0.19300
F1521       F  0.62842593  0.60381958  0.51362299    -0.13600
F1522       F  0.57668838  0.59536286  0.56594450    -0.15900
F1523       F  0.55600048  0.67454922  0.44159179    -0.15900
F1524       F  0.00339038  0.66512759  0.49094472    -0.13600
C1525       C  0.77237247  0.65215765  0.28367605     0.24400
C1526       C  0.73543504  0.65347544  0.28562722    -0.23700
C1527       C  0.71658578  0.65143727  0.25123925     0.19300
C1528       C  0.73402637  0.65028246  0.21589647     0.24400
C1529       C  0.77096200  0.65165069  0.21382328    -0.23600
C1530       C  0.78983115  0.65151561  0.24827505     0.19300
F1531       F  0.82521251  0.65217775  0.24789667    -0.13600
F1532       F  0.79204640  0.65240342  0.31607876    -0.15900
F1533       F  0.71431118  0.64879887  0.18355955    -0.15900
F1534       F  0.68119964  0.65180203  0.25151939    -0.13600
C1535       C  0.76769646  0.87003361  0.78214571     0.24400
C1536       C  0.73102373  0.86566111  0.78365834    -0.23700
C1537       C  0.71268514  0.86433246  0.74890080     0.19300
C1538       C  0.73063555  0.86489131  0.71375800     0.24400
C1539       C  0.76767077  0.86624681  0.71230126    -0.23600
C1540       C  0.78573072  0.87008495  0.74702981     0.19300
F1541       F  0.82099206  0.87281675  0.74730093    -0.13600
F1542       F  0.78658020  0.87341432  0.81488640    -0.15900
F1543       F  0.71137253  0.86299690  0.68112102    -0.15900
F1544       F  0.67747226  0.86089463  0.74872795    -0.13600
C1545       C  0.77975854  0.76285439  0.02288096     0.24400
C1546       C  0.77566545  0.73114780  0.00905726    -0.23700
C1547       C  0.75064761  0.72507416  0.98082386     0.19300
C1548       C  0.72834861  0.74936144  0.96894272     0.24400
C1549       C  0.73148142  0.78086070  0.98386254    -0.23600
C1550       C  0.75738652  0.78715069  0.01112703     0.19300
F1551       F  0.76178469  0.81697434  0.02575327    -0.13600
F1552       F  0.80503814  0.77029260  0.04876135    -0.15900
F1553       F  0.70362635  0.74188669  0.94245248    -0.15900
F1554       F  0.74652629  0.69528002  0.96597418    -0.13600
C1555       C  0.98445934  0.89684639  0.28175963     0.24400
C1556       C  0.52099356  0.90147849  0.28348372    -0.23700
C1557       C  0.53941708  0.90496958  0.24895847     0.19300
C1558       C  0.52175709  0.90518567  0.21373631     0.24400
C1559       C  0.98423325  0.90254163  0.21215893    -0.23600
C1560       C  0.96641747  0.89706650  0.24673146     0.19300
F1561       F  0.93129828  0.89289666  0.24699065    -0.13600
F1562       F  0.96579798  0.89190917  0.31439675    -0.15900
F1563       F  0.54111244  0.90941433  0.18143553    -0.15900
F1564       F  0.57442271  0.90994826  0.24918994    -0.13600
C1565       C  0.56349535  0.85257452  0.98083197     0.24400
C1566       C  0.59148460  0.87375160  0.97749397    -0.23700
C1567       C  0.59471619  0.89924095  0.00368029     0.19300
C1568       C  0.56959297  0.90418113  0.03220004     0.24400
C1569       C  0.54078707  0.88346705  0.03523872    -0.23600
C1570       C  0.53842363  0.85719385  0.00948584     0.19300
F1571       F  0.51128862  0.83631276  0.01102744    -0.13600
F1572       F  0.56068152  0.82714877  0.95673319    -0.15900
F1573       F  0.57306540  0.92972505  0.05604389    -0.15900
F1574       F  0.62231781  0.91955774  0.00142577    -0.13600
C1575       C  0.82000538  0.91634002  0.00687156     0.24400
C1576       C  0.83842479  0.89080346  0.02283370    -0.23700
C1577       C  0.83457009  0.86023399  0.00660401     0.19300
C1578       C  0.81172927  0.85498581  0.97585648     0.24400
C1579       C  0.79147760  0.88012710  0.96121499    -0.23600
C1580       C  0.79637932  0.91105547  0.97676502     0.19300
F1581       F  0.77828216  0.93627012  0.96284921    -0.13600
F1582       F  0.82532386  0.94649876  0.02009974    -0.15900
F1583       F  0.80873273  0.82498629  0.96131918    -0.15900
F1584       F  0.85392341  0.83552675  0.01977234    -0.13600
C1585       C  0.90421649  0.52551808  0.12872851     0.24400
C1586       C  0.88570720  0.49666481  0.12479797    -0.23700
C1587       C  0.85047149  0.49790001  0.11243659     0.19300
C1588       C  0.83484913  0.52702646  0.10295782     0.24400
C1589       C  0.85373690  0.55546450  0.10624147    -0.23600
C1590       C  0.88832790  0.55452511  0.11975170     0.19300
F1591       F  0.90707084  0.58190501  0.12375132    -0.13600
F1592       F  0.93791189  0.52579821  0.14062305    -0.15900
F1593       F  0.80109353  0.52750091  0.09135968    -0.15900
F1594       F  0.83245269  0.97087019  0.10275344    -0.13600
C1595       C  0.90917280  0.77896768  0.08703165     0.24400
C1596       C  0.89635965  0.80643212  0.10498700    -0.23700
C1597       C  0.86741756  0.80390009  0.12989236     0.19300
C1598       C  0.85192863  0.77432207  0.13725791     0.24400
C1599       C  0.86563191  0.74650372  0.12071237    -0.23600
C1600       C  0.89423100  0.74918282  0.09509399     0.19300
F1601       F  0.90708113  0.72310615  0.07669988    -0.13600
F1602       F  0.93644916  0.78088844  0.06222925    -0.15900
F1603       F  0.82350478  0.77299340  0.16051191    -0.15900
F1604       F  0.85339054  0.83034584  0.14636834    -0.13600
C1605       C  0.96843906  0.61778707  0.74764501     0.24400
C1606       C  0.98671768  0.61326273  0.71305061    -0.23700
C1607       C  0.52354049  0.60877148  0.71482911     0.19300
C1608       C  0.54109451  0.60834132  0.75008378     0.24400
C1609       C  0.52264154  0.61210600  0.78464079    -0.23600
C1610       C  0.98594013  0.61690558  0.78297079     0.19300
F1611       F  0.96688773  0.62093168  0.81554314    -0.13600
F1612       F  0.93339643  0.62213872  0.74756841    -0.15900
F1613       F  0.57589976  0.60257595  0.75032800    -0.15900
F1614       F  0.54272248  0.60398209  0.68248061    -0.13600
C1615       C  0.97236283  0.51359172  0.01853128     0.24400
C1616       C  0.97995755  0.98075219  0.00986065    -0.23700
C1617       C  0.51228055  0.97612038  0.99132623     0.19300
C1618       C  0.53452033  0.50161339  0.98175638     0.24400
C1619       C  0.52529606  0.53355394  0.98996224    -0.23600
C1620       C  0.49376145  0.53963856  0.00888297     0.19300
F1621       F  0.98477772  0.56914157  0.01715717    -0.13600
F1622       F  0.94170123  0.52039051  0.03632519    -0.15900
F1623       F  0.56493115  0.49493385  0.96335935    -0.15900
F1624       F  0.52279525  0.94574349  0.98451402    -0.13600
C1625       C  0.61890535  0.76226771  0.90975357     0.24400
C1626       C  0.63690879  0.76769959  0.87498800    -0.23700
C1627       C  0.63819500  0.74358350  0.84733525     0.19300
C1628       C  0.62193167  0.71425316  0.85424641     0.24400
C1629       C  0.60442251  0.70828961  0.88950676    -0.23600
C1630       C  0.60292840  0.73279901  0.91703438     0.19300
F1631       F  0.58615326  0.72829109  0.95097492    -0.13600
F1632       F  0.61782083  0.78527659  0.93731670    -0.15900
F1633       F  0.62437243  0.69143029  0.82657121    -0.15900
F1634       F  0.65474094  0.74858682  0.81337115    -0.13600
C1635       C  0.61363618  0.95812753  0.87515671     0.24400
C1636       C  0.64605423  0.95696897  0.89423165    -0.23700
C1637       C  0.66291634  0.98542855  0.90388525     0.19300
C1638       C  0.64791653  0.51450748  0.89720969     0.24400
C1639       C  0.61660393  0.51659760  0.87574085    -0.23600
C1640       C  0.59828549  0.98735591  0.86598729     0.19300
F1641       F  0.56679831  0.98738537  0.84821037    -0.13600
F1642       F  0.59656558  0.93076401  0.86561043    -0.15900
F1643       F  0.66425918  0.54115082  0.91044212    -0.15900
F1644       F  0.69430791  0.98484792  0.92178172    -0.13600
C1645       C  0.70135063  0.60335668  0.02696354     0.24400
C1646       C  0.70969140  0.63490818  0.03780385    -0.23700
C1647       C  0.69371726  0.66026868  0.01815982     0.19300
C1648       C  0.67226206  0.65426470  0.98648581     0.24400
C1649       C  0.66496032  0.62281748  0.97496394    -0.23600
C1650       C  0.67865179  0.59742440  0.99628672     0.19300
F1651       F  0.66950326  0.56687352  0.98775214    -0.13600
F1652       F  0.71502043  0.57825415  0.04625959    -0.15900
F1653       F  0.65717402  0.67919951  0.96816284    -0.15900
F1654       F  0.69948955  0.69100050  0.02892645    -0.13600
C1655       C  0.97117397  0.64610892  0.00088585     0.24400
C1656       C  0.96530988  0.63071272  0.96513389    -0.23700
C1657       C  0.93174686  0.61948340  0.95670356     0.19300
C1658       C  0.90458937  0.62377808  0.98308016     0.24400
C1659       C  0.91056966  0.63874963  0.01896036    -0.23600
C1660       C  0.94412900  0.64970943  0.02766932     0.19300
F1661       F  0.95063745  0.66434420  0.06178600    -0.13600
F1662       F  0.50336032  0.65997514  0.00891584    -0.15900
F1663       F  0.87242002  0.61249804  0.97383488    -0.15900
F1664       F  0.92519549  0.60436071  0.92289804    -0.13600
loop_ 
_geom_bond_atom_site_label_1 
_geom_bond_atom_site_label_2 
_geom_bond_distance 
_geom_bond_site_symmetry_2 
_ccdc_geom_bond_type 
O1           Al9   1.872       .  S
O1          C848   1.257   1_455  A
C2           O12   1.255       .  A
C2            O3   1.272       .  A
C2          C391   1.489       .  S
O3           Al5   1.949       .  S
O4           Al5   1.843       .  S
O4            C6   1.247       .  A
Al5          O13   1.868       .  S
Al5         O847   1.972   1_455  S
Al5          O14   1.757       .  S
C6           O19   1.276       .  A
C6          C371   1.469       .  S
O7           Al9   1.863       .  S
O7           C17   1.252       .  A
O8          Al18   1.856       .  S
O8           C21   1.255       .  A
Al9          O22   1.983       .  S
Al9          O19   1.988       .  S
Al9          O14   1.761       .  S
O10         Al18   1.983       .  S
O10          C17   1.276       .  A
O11         Al18   1.977       .  S
O11          C20   1.279       .  A
O12         Al18   1.865       .  S
O13          C20   1.257       .  A
O14         Al18   1.761       .  S
O15        Al837   1.971       .  S
O15          C16   1.275       .  A
C16         O833   1.258       .  A
C16         C408   1.483       .  S
C17         C401   1.469       .  S
C20         C361   1.494       .  S
C21          O22   1.279       .  A
C21         C381   1.485       .  S
O23         Al31   1.979       .  S
O23          C38   1.276       .  A
C24          O34   1.271       .  A
C24          O25   1.254       .  A
C24         C754   1.489       .  S
O25         Al27   1.864       .  S
O26         Al27   1.988       .  S
O26          C28   1.278       .  A
Al27         O35   1.995       .  S
Al27         O37   1.864       .  S
Al27         O36   1.759       .  S
C28          O41   1.256       .  A
C28         C328   1.472       .  S
O29         Al31   2.002       .  S
O29          C39   1.277       .  A
O30        Al872   1.986   1_455  S
O30          C43   1.277       .  A
Al31         O44   1.867       .  S
Al31         O41   1.868       .  S
Al31         O36   1.763       .  S
O32         Al40   1.844       .  S
O32          C39   1.245       .  A
O33         Al40   1.856       .  S
O33          C42   1.254       .  A
O34         Al40   1.949       .  S
O35          C42   1.283       .  A
O36         Al40   1.756       .  S
O37          C38   1.257       .  A
C38         C348   1.476       .  S
C39         C368   1.474       .  S
Al40        O862   1.977       .  S
C42         C311   1.499       .  S
C43         O876   1.255   1_455  A
C43         C321   1.488       .  S
O44         C875   1.256       .  A
O45         Al53   1.980       .  S
O45          C60   1.277       .  A
C46          O56   1.270       .  A
C46          O47   1.251       .  A
C46         C378   1.472       .  S
O47         Al49   1.860       .  S
O48         Al49   1.974       .  S
O48          C50   1.275       .  A
Al49         O57   1.992       .  S
Al49         O59   1.854       .  S
Al49         O58   1.762       .  S
C50          O63   1.254       .  A
C50         C318   1.467       .  S
O51         Al53   2.005       .  S
O51          C61   1.280       .  A
O52         Al62   1.978       .  S
O52          C65   1.275       .  A
Al53         O66   1.876       .  S
Al53         O63   1.858       .  S
Al53         O58   1.761       .  S
O54         Al62   1.836       .  S
O54          C61   1.246       .  A
O55         Al62   1.853       .  S
O55          C64   1.256       .  A
O56         Al62   1.952       .  S
O57          C64   1.282       .  A
O58         Al62   1.759       .  S
O59          C60   1.255       .  A
C60         C388   1.472       .  S
C61         C301   1.478       .  S
C64         C288   1.494       .  S
C65          O66   1.256       .  A
C65         C331   1.490       .  S
O67         Al75   1.882       .  S
O67          C82   1.258       .  A
C68          O78   1.255       .  A
C68          O69   1.270       .  A
C68         C351   1.485       .  S
O69         Al71   1.944       .  S
O70         Al71   1.832       .  S
O70          C72   1.246       .  A
Al71         O79   1.853       .  S
Al71         O81   1.968       .  S
Al71         O80   1.757       .  S
C72          O85   1.280       .  A
C72         C298   1.476       .  S
O73         Al75   1.849       .  S
O73          C83   1.253       .  A
O74         Al84   1.859       .  S
O74          C87   1.255       .  A
Al75         O88   1.980       .  S
Al75         O85   2.003       .  S
Al75         O80   1.761       .  S
O76         Al84   1.984       .  S
O76          C83   1.277       .  A
O77         Al84   1.992       .  S
O77          C86   1.282       .  A
O78         Al84   1.875       .  S
O79          C86   1.257       .  A
O80         Al84   1.760       .  S
O81          C82   1.273       .  A
C82         C398   1.489       .  S
C83         C411   1.477       .  S
C86         C281   1.494       .  S
C87          O88   1.278       .  A
C87         C341   1.488       .  S
O89         Al97   1.871       .  S
O89         C936   1.257       .  A
C90         O100   1.255       .  A
C90          O91   1.269       .  A
C90         C231   1.475       .  S
O91         Al93   1.949       .  S
O92         Al93   1.847       .  S
O92          C94   1.247       .  A
Al93        O101   1.859       .  S
Al93        O935   1.971       .  S
Al93        O102   1.761       .  S
C94         O107   1.279       .  A
C94         C248   1.474       .  S
O95         Al97   1.857       .  S
O95         C105   1.254       .  A
O96        Al106   1.870       .  S
O96         C109   1.258       .  A
Al97        O110   1.984       .  S
Al97        O107   2.003       .  S
Al97        O102   1.761       .  S
O98        Al106   1.977       .  S
O98         C105   1.275       .  A
O99        Al106   1.986       .  S
O99         C108   1.281       .  A
O100       Al106   1.871       .  S
O101        C108   1.257       .  A
O102       Al106   1.762       .  S
O103       Al925   1.972   1_455  S
O103        C104   1.274       .  A
C104        O921   1.257   1_455  A
C104        C268   1.484       .  S
C105        C261   1.467       .  S
C108        C358   1.496       .  S
C109        O110   1.278       .  A
C109        C238   1.489       .  S
O111       Al119   1.979       .  S
O111        C126   1.276       .  A
C112        O122   1.272       .  A
C112        O113   1.252       .  A
C112        C627   1.482       .  S
O113       Al115   1.862       .  S
O114       Al115   1.980       .  S
O114        C116   1.277       .  A
Al115       O123   1.989       .  S
Al115       O125   1.864       .  S
Al115       O124   1.761       .  S
C116        O129   1.254       .  A
C116        C201   1.472       .  S
O117       Al119   2.006       .  S
O117        C127   1.278       .  A
O118       Al960   1.978       .  S
O118        C131   1.277       .  A
Al119       O132   1.869       .  S
Al119       O129   1.852       .  S
Al119       O124   1.761       .  S
O120       Al128   1.839       .  S
O120        C127   1.246       .  A
O121       Al128   1.853       .  S
O121        C130   1.254       .  A
O122       Al128   1.960       .  S
O123        C130   1.282       .  A
O124       Al128   1.758       .  S
O125        C126   1.257       .  A
C126        C221   1.480       .  S
C127        C251   1.475       .  S
Al128       O950   1.982   1_455  S
C130        C308   1.494       .  S
C131        O964   1.256       .  A
C131        C188   1.485       .  S
O132        C963   1.255   1_455  A
O133       Al141   1.995       .  S
O133        C148   1.280       .  A
C134        O144   1.271       .  A
C134        O135   1.253       .  A
C134        C241   1.481       .  S
O135       Al137   1.871       .  S
O136       Al137   1.994       .  S
O136        C138   1.279       .  A
Al137       O145   1.999       .  S
Al137       O147   1.859       .  S
Al137       O146   1.755       .  S
C138        O151   1.250       .  A
C138        C191   1.472       .  S
O139       Al141   2.010       .  S
O139        C149   1.280       .  A
O140       Al150   1.979       .  S
O140        C153   1.275       .  A
Al141       O154   1.870       .  S
Al141       O151   1.839       .  S
Al141       O146   1.760       .  S
O142       Al150   1.833       .  S
O142        C149   1.245       .  A
O143       Al150   1.849       .  S
O143        C152   1.256       .  A
O144       Al150   1.956       .  S
O145        C152   1.285       .  A
O146       Al150   1.757       .  S
O147        C148   1.254       .  A
C148        C228   1.493       .  S
C149        C178   1.473       .  S
C152        C291   1.497       .  S
C153        O154   1.256       .  A
C153        C198   1.479       .  S
O155       Al163   1.873       .  S
O155        C170   1.255       .  A
C156        O166   1.254       .  A
C156        O157   1.270       .  A
C156        C218   1.482       .  S
O157       Al159   1.947       .  S
O158       Al159   1.833       .  S
O158        C160   1.245       .  A
Al159       O167   1.855       .  S
Al159       O169   1.979       .  S
Al159       O168   1.761       .  S
C160        O173   1.282       .  A
C160        C181   1.473       .  S
O161       Al163   1.847       .  S
O161        C171   1.253       .  A
O162       Al172   1.861       .  S
O162        C175   1.255       .  A
Al163       O176   1.982       .  S
Al163       O173   2.011       .  S
Al163       O168   1.759       .  S
O164       Al172   1.980       .  S
O164        C171   1.277       .  A
O165       Al172   1.989       .  S
O165        C174   1.283       .  A
O166       Al172   1.872       .  S
O167        C174   1.258       .  A
O168       Al172   1.756       .  S
O169        C170   1.274       .  A
C170        C258   1.489       .  S
C171        C271   1.471       .  S
C174        C278   1.493       .  S
C175        O176   1.278       .  A
C175        C208   1.486       .  S
C177        C178   1.417       .  A
C177        C182   1.396       .  A
C177        F184   1.359       .  S
C178        C179   1.399       .  A
C179        C180   1.397       .  A
C179        F186   1.358       .  S
C180        C181   1.418       .  A
C180        F185   1.359       .  S
C181        C182   1.398       .  A
C182        F183   1.357       .  S
C187        C188   1.420       .  A
C187        C192   1.402       .  A
C187        F194   1.358       .  S
C188        C189   1.401       .  A
C189        C190   1.397       .  A
C189        F196   1.358       .  S
C190        C191   1.412       .  A
C190        F195   1.358       .  S
C191        C192   1.396       .  A
C192        F193   1.357       .  S
C197        C198   1.399       .  A
C197        C202   1.397       .  A
C197        F204   1.358       .  S
C198        C199   1.418       .  A
C199        C200   1.399       .  A
C199        F206   1.357       .  S
C200        C201   1.395       .  A
C200        F205   1.358       .  S
C201        C202   1.413       .  A
C202        F203   1.358       .  S
C207        C208   1.420       .  A
C207        C212   1.401       .  A
C207        F214   1.358       .  S
C208        C209   1.401       .  A
C209        C210   1.400       .  A
C209        F216   1.357       .  S
C210        C211   1.414   1_545  A
C210        F631   1.358   1_545  S
C211        C528   1.478       .  S
C211        C212   1.397   1_565  A
C212        F213   1.358       .  S
F215        C626   1.358       .  S
C217        C218   1.416       .  A
C217        C222   1.401       .  A
C217        F224   1.358       .  S
C218        C219   1.400       .  A
C219        C220   1.399       .  A
C219        F226   1.358       .  S
C220        C221   1.415       .  A
C220        F225   1.358       .  S
C221        C222   1.399       .  A
C222        F223   1.358       .  S
C227        C228   1.423       .  A
C227        C232   1.401       .  A
C227        F234   1.358       .  S
C228        C229   1.403       .  A
C229        C646   1.402       .  A
C229        F236   1.357       .  S
C230        C231   1.411       .  A
C230        C645   1.400   1_545  A
C230        F235   1.358       .  S
C231        C648   1.397   1_545  A
C232        C647   1.396       .  A
C232        F233   1.358       .  S
C237        C238   1.402       .  A
C237        C242   1.403       .  A
C237        F244   1.358       .  S
C238        C239   1.418       .  A
C239        C240   1.401       .  A
C239        F246   1.358       .  S
C240        C241   1.398       .  A
C240        F245   1.358       .  S
C241        C242   1.414       .  A
C242        F243   1.358       .  S
C247        C252   1.398       .  A
C247       C1080   1.401   1_455  A
C247        F254   1.357       .  S
C248        C249   1.414       .  A
C248       C1079   1.401       .  A
C249        C666   1.400   1_545  A
C249        F256   1.359   1_545  S
C250        C665   1.400       .  A
C250       C1083   1.402       .  A
C250        F255   1.357       .  S
C251       C1082   1.402   1_455  A
C251        C668   1.414       .  A
C252        C667   1.414   1_545  A
C252        F253   1.359       .  S
C257        C258   1.406       .  A
C257        C262   1.399       .  A
C257        F264   1.358       .  S
C258        C259   1.420       .  A
C259        C260   1.399       .  A
C259        F266   1.358       .  S
C260        C261   1.395       .  A
C260        F265   1.357       .  S
C261        C262   1.408       .  A
C262        F263   1.358       .  S
C267        C268   1.403       .  A
C267        C272   1.398       .  A
C267        F274   1.358       .  S
C268        C269   1.419       .  A
C269        C270   1.399       .  A
C269       F1108   1.357       .  S
C270        C271   1.395       .  A
C270        F275   1.357       .  S
C271        C272   1.411       .  A
C272        F273   1.359       .  S
F276       C1101   1.357       .  S
C277        C278   1.419       .  A
C277        C282   1.402       .  A
C277        F284   1.358       .  S
C278        C279   1.402       .  A
C279        C280   1.400       .  A
C279        F286   1.358       .  S
C280        C281   1.419       .  A
C280        F285   1.358       .  S
C281        C282   1.403       .  A
C282        F283   1.357       .  S
C287        C288   1.419       .  A
C287        C292   1.402       .  A
C287        F294   1.358       .  S
C288        C289   1.402       .  A
C289        C290   1.403       .  A
C289        F296   1.358       .  S
C290        C291   1.422       .  A
C290        F295   1.359       .  S
C291        C292   1.402       .  A
C292        F293   1.357       .  S
C297        C298   1.419       .  A
C297        C302   1.396       .  A
C297        F304   1.359       .  S
C298        C299   1.397   1_554  A
C299        C300   1.396       .  A
C299        F306   1.357       .  S
C300        C301   1.419       .  A
C300        F305   1.359       .  S
C301        C302   1.398   1_556  A
C302        F303   1.357       .  S
C307        C312   1.403       .  A
C307       C1140   1.421       .  A
C307        F314   1.358       .  S
C308        C309   1.401       .  A
C308       C1139   1.420   1_455  A
C309        C310   1.402       .  A
C309        F316   1.358       .  S
C310       C1143   1.422   1_455  A
C310        F315   1.358       .  S
C311        C312   1.402       .  A
C311       C1142   1.422       .  A
C312        F313   1.358       .  S
C317        C318   1.394       .  A
C317        C322   1.398   1_556  A
C317        F324   1.358       .  S
C318        C319   1.408   1_556  A
C319        C320   1.399       .  A
C319        F326   1.358       .  S
C320        C321   1.405       .  A
C320        F325   1.358       .  S
C321        C322   1.421       .  A
C322        F323   1.358       .  S
C327        C328   1.401       .  A
C327        C332   1.403   1_554  A
C327        F334   1.358       .  S
C328        C329   1.406       .  A
C329        C330   1.401   1_554  A
C329        F336   1.358       .  S
C330        C331   1.408       .  A
C330        F335   1.358       .  S
C331        C332   1.415       .  A
C332        F333   1.358       .  S
C337        C338   1.395   1_545  A
C337        C342   1.399       .  A
C337        F344   1.358       .  S
C338        C440   1.471       .  S
C338        C339   1.408   1_565  A
C339        C340   1.398       .  A
C339        F762   1.357   1_545  S
C340        C341   1.403       .  A
C340        F345   1.357       .  S
C341        C342   1.422       .  A
C342        F343   1.358       .  S
F346        C755   1.358       .  S
C347        C348   1.398       .  A
C347        C352   1.403       .  A
C347        F354   1.358       .  S
C348        C349   1.411       .  A
C349        C350   1.397       .  A
C349        F356   1.358       .  S
C350        C351   1.402       .  A
C350        F355   1.358       .  S
C351        C352   1.418       .  A
C352        F353   1.358       .  S
C357        C358   1.404       .  A
C357        C362   1.402       .  A
C357        F364   1.357       .  S
C358       C1191   1.419       .  A
C359        C360   1.401       .  A
C359       C1190   1.419   1_455  A
C359        F366   1.358       .  S
C360        C361   1.403       .  A
C360        F365   1.358       .  S
C361       C1194   1.418   1_455  A
C362       C1193   1.416       .  A
C362        F363   1.358       .  S
C367        C784   1.413   1_545  A
C367       C1204   1.397       .  A
C367        F374   1.359       .  S
C368        C783   1.414       .  A
C368       C1201   1.401   1_554  A
C369       C1200   1.401   1_456  A
C369        C786   1.396       .  A
C369        F376   1.357       .  S
C370        C371   1.413   1_565  A
C370        C785   1.397       .  A
C370        F375   1.359       .  S
C371        C372   1.400   1_456  A
C372       C1199   1.395       .  A
C372       F1205   1.358       .  S
F373       C1204   1.357       .  S
C377        C378   1.411       .  A
C377        C382   1.399       .  A
C377        F384   1.358       .  S
C378        C379   1.394       .  A
C379        C380   1.398       .  A
C379        F386   1.358       .  S
C380        C381   1.421       .  A
C380        F385   1.358       .  S
C381        C382   1.402       .  A
C382        F383   1.358       .  S
C387        C388   1.412       .  A
C387        C392   1.399       .  A
C387        F394   1.358       .  S
C388        C389   1.394       .  A
C389        C806   1.399       .  A
C389        F396   1.357       .  S
C390        C391   1.420       .  A
C390        C805   1.400   1_545  A
C390        F395   1.357       .  S
C391        C808   1.406   1_545  A
C392        C807   1.404       .  A
C392        F393   1.358       .  S
C397        C398   1.413       .  A
C397        C402   1.402   1_554  A
C397        F404   1.358       .  S
C398        C399   1.409       .  A
C399        C400   1.400   1_554  A
C399        F406   1.357       .  S
C400        C401   1.404       .  A
C400        F405   1.358       .  S
C401        C402   1.402       .  A
C402        F403   1.358       .  S
C407        C408   1.418   1_554  A
C407        C412   1.402       .  A
C407       F1246   1.357       .  S
C408        C409   1.400       .  A
C409        C410   1.398       .  A
C409        F416   1.358       .  S
C410        C411   1.413   1_556  A
C410        F415   1.358       .  S
C411        C412   1.398       .  A
C412        F413   1.358       .  S
F414       C1239   1.358   1_454  S
O417       Al425   1.874       .  S
O417       C1264   1.258   1_455  A
C418        O428   1.254       .  A
C418        O419   1.272       .  A
C418        C807   1.487       .  S
O419       Al421   1.951       .  S
O420       Al421   1.841       .  S
O420        C422   1.247       .  A
Al421       O429   1.868       .  S
Al421      O1263   1.974   1_455  S
Al421       O430   1.756       .  S
C422        O435   1.275       .  A
C422        C787   1.465       .  S
O423       Al425   1.860       .  S
O423        C433   1.251       .  A
O424       Al434   1.856       .  S
O424        C437   1.255       .  A
Al425       O438   1.980       .  S
Al425       O435   1.982       .  S
Al425       O430   1.762       .  S
O426       Al434   1.981       .  S
O426        C433   1.275       .  A
O427       Al434   1.978       .  S
O427        C436   1.279       .  A
O428       Al434   1.864       .  S
O429        C436   1.259       .  A
O430       Al434   1.763       .  S
O431      Al1253   1.975       .  S
O431        C432   1.276       .  A
C432       O1249   1.256       .  A
C432        C824   1.481       .  S
C433        C817   1.467       .  S
C436        C777   1.494       .  S
C437        O438   1.279       .  A
C437        C797   1.485       .  S
O439       Al447   1.973       .  S
O439        C454   1.275       .  A
C440        O450   1.268       .  A
C440        O441   1.253       .  A
O441       Al443   1.864       .  S
O442       Al443   1.987       .  S
O442        C444   1.278       .  A
Al443       O451   1.998       .  S
Al443       O453   1.862       .  S
Al443       O452   1.758       .  S
C444        O457   1.255       .  A
C444        C744   1.473       .  S
O445       Al447   1.999       .  S
O445        C455   1.278       .  A
O446      Al1288   1.981   1_455  S
O446        C459   1.277       .  A
Al447       O460   1.869       .  S
Al447       O457   1.862       .  S
Al447       O452   1.761       .  S
O448       Al456   1.847       .  S
O448        C455   1.247       .  A
O449       Al456   1.851       .  S
O449        C458   1.254       .  A
O450       Al456   1.948       .  S
O451        C458   1.284       .  A
O452       Al456   1.762       .  S
O453        C454   1.256       .  A
C454        C764   1.475       .  S
C455        C784   1.472       .  S
Al456      O1278   1.975       .  S
C458        C727   1.499       .  S
C459       O1292   1.256   1_455  A
C459        C737   1.487       .  S
O460       C1291   1.255       .  A
O461       Al469   1.979       .  S
O461        C476   1.277       .  A
C462        O472   1.270       .  A
C462        O463   1.251       .  A
C462        C794   1.471       .  S
O463       Al465   1.861       .  S
O464       Al465   1.975       .  S
O464        C466   1.275       .  A
Al465       O473   1.991       .  S
Al465       O475   1.856       .  S
Al465       O474   1.763       .  S
C466        O479   1.254       .  A
C466        C734   1.467       .  S
O467       Al469   1.998       .  S
O467        C477   1.278       .  A
O468       Al478   1.975       .  S
O468        C481   1.275       .  A
Al469       O482   1.876       .  S
Al469       O479   1.859       .  S
Al469       O474   1.762       .  S
O470       Al478   1.839       .  S
O470        C477   1.246       .  A
O471       Al478   1.859       .  S
O471        C480   1.257       .  A
O472       Al478   1.952       .  S
O473        C480   1.282       .  A
O474       Al478   1.760       .  S
O475        C476   1.255       .  A
C476        C804   1.470       .  S
C477        C717   1.473       .  S
C480        C704   1.494       .  S
C481        O482   1.257       .  A
C481        C747   1.493       .  S
O483       Al491   1.881       .  S
O483        C498   1.257       .  A
C484        O494   1.252       .  A
C484        O485   1.269       .  A
C484        C767   1.483       .  S
O485       Al487   1.945       .  S
O486       Al487   1.837       .  S
O486        C488   1.247       .  A
Al487       O495   1.848       .  S
Al487       O497   1.965       .  S
Al487       O496   1.760       .  S
C488        O501   1.279       .  A
C488        C714   1.474       .  S
O489       Al491   1.849       .  S
O489        C499   1.253       .  A
O490       Al500   1.859       .  S
O490        C503   1.255       .  A
Al491       O504   1.973       .  S
Al491       O501   1.997       .  S
Al491       O496   1.762       .  S
O492       Al500   1.979       .  S
O492        C499   1.277       .  A
O493       Al500   1.992       .  S
O493        C502   1.282       .  A
O494       Al500   1.865       .  S
O495        C502   1.256       .  A
O496       Al500   1.763       .  S
O497        C498   1.273       .  A
C498        C814   1.486       .  S
C499        C827   1.475       .  S
C502        C697   1.493       .  S
C503        O504   1.275       .  A
C503        C757   1.472       .  S
O505       Al513   1.875       .  S
O505       C1352   1.258       .  A
C506        O516   1.254       .  A
C506        O507   1.270       .  A
C506        C647   1.476       .  S
O507       Al509   1.952       .  S
O508       Al509   1.848       .  S
O508        C510   1.247       .  A
Al509       O517   1.860       .  S
Al509      O1351   1.974       .  S
Al509       O518   1.761       .  S
C510        O523   1.278       .  A
C510        C664   1.472       .  S
O511       Al513   1.856       .  S
O511        C521   1.253       .  A
O512       Al522   1.872       .  S
O512        C525   1.259       .  A
Al513       O526   1.989       .  S
Al513       O523   1.997       .  S
Al513       O518   1.761       .  S
O514       Al522   1.980       .  S
O514        C521   1.275       .  A
O515       Al522   1.987       .  S
O515        C524   1.280       .  A
O516       Al522   1.872       .  S
O517        C524   1.258       .  A
O518       Al522   1.762       .  S
O519      Al1341   1.973   1_455  S
O519        C520   1.275       .  A
C520       O1337   1.258   1_455  A
C520        C684   1.485       .  S
C521        C677   1.467       .  S
C524        C774   1.496       .  S
C525        O526   1.279       .  A
C525        C654   1.493       .  S
O527       Al535   1.983       .  S
O527        C542   1.278       .  A
C528        O538   1.272       .  A
C528        O529   1.252       .  A
O529       Al531   1.858       .  S
O530       Al531   1.983       .  S
O530        C532   1.277       .  A
Al531       O539   1.992       .  S
Al531       O541   1.863       .  S
Al531       O540   1.763       .  S
C532        O545   1.254       .  A
C532        C617   1.473       .  S
O533       Al535   2.009       .  S
O533        C543   1.279       .  A
O534      Al1376   1.982       .  S
O534        C547   1.277       .  A
Al535       O548   1.871       .  S
Al535       O545   1.853       .  S
Al535       O540   1.761       .  S
O536       Al544   1.842       .  S
O536        C543   1.247       .  A
O537       Al544   1.856       .  S
O537        C546   1.255       .  A
O538       Al544   1.958       .  S
O539        C546   1.283       .  A
O540       Al544   1.760       .  S
O541        C542   1.257       .  A
C542        C637   1.482       .  S
C543        C667   1.477       .  S
Al544      O1366   1.978   1_455  S
C546        C724   1.494       .  S
C547       O1380   1.256       .  A
C547        C604   1.489       .  S
O548       C1379   1.256   1_455  A
O549       Al557   1.985       .  S
O549        C564   1.278       .  A
C550        O560   1.272       .  A
C550        O551   1.253       .  A
C550        C657   1.484       .  S
O551       Al553   1.872       .  S
O552       Al553   1.993       .  S
O552        C554   1.279       .  A
Al553       O561   2.006       .  S
Al553       O563   1.862       .  S
Al553       O562   1.758       .  S
C554        O567   1.252       .  A
C554        C607   1.474       .  S
O555       Al557   2.008       .  S
O555        C565   1.280       .  A
O556       Al566   1.983       .  S
O556        C569   1.276       .  A
Al557       O570   1.870       .  S
Al557       O567   1.845       .  S
Al557       O562   1.761       .  S
O558       Al566   1.832       .  S
O558        C565   1.245       .  A
O559       Al566   1.852       .  S
O559        C568   1.256       .  A
O560       Al566   1.959       .  S
O561        C568   1.285       .  A
O562       Al566   1.757       .  S
O563        C564   1.256       .  A
C564        C644   1.488       .  S
C565        C594   1.474       .  S
C568        C707   1.502       .  S
C569        O570   1.256       .  A
C569        C614   1.484       .  S
O571       Al579   1.875       .  S
O571        C586   1.255       .  A
C572        O582   1.254       .  A
C572        O573   1.270       .  A
C572        C634   1.485       .  S
O573       Al575   1.951       .  S
O574       Al575   1.829       .  S
O574        C576   1.245       .  A
Al575       O583   1.852       .  S
Al575       O585   1.977       .  S
Al575       O584   1.761       .  S
C576        O589   1.282       .  A
C576        C597   1.475       .  S
O577       Al579   1.848       .  S
O577        C587   1.253       .  A
O578       Al588   1.862       .  S
O578        C591   1.255       .  A
Al579       O592   1.989       .  S
Al579       O589   2.015       .  S
Al579       O584   1.760       .  S
O580       Al588   1.981       .  S
O580        C587   1.277       .  A
O581       Al588   1.988       .  S
O581        C590   1.283       .  A
O582       Al588   1.872       .  S
O583        C590   1.257       .  A
O584       Al588   1.757       .  S
O585        C586   1.274       .  A
C586        C674   1.491       .  S
C587        C687   1.473       .  S
C590        C694   1.493       .  S
C591        O592   1.279       .  A
C591        C624   1.491       .  S
C593        C594   1.418       .  A
C593        C598   1.396       .  A
C593        F600   1.359       .  S
C594        C595   1.398       .  A
C595        C596   1.397       .  A
C595        F602   1.358       .  S
C596        C597   1.419       .  A
C596        F601   1.359       .  S
C597        C598   1.398       .  A
C598        F599   1.357       .  S
C603        C604   1.421       .  A
C603        C608   1.403       .  A
C603        F610   1.358       .  S
C604        C605   1.402       .  A
C605        C606   1.397       .  A
C605        F612   1.358       .  S
C606        C607   1.411       .  A
C606        F611   1.358       .  S
C607        C608   1.396       .  A
C608        F609   1.358       .  S
C613        C614   1.400       .  A
C613        C618   1.398       .  A
C613        F620   1.358       .  S
C614        C615   1.420       .  A
C615        C616   1.400       .  A
C615        F622   1.357       .  S
C616        C617   1.396       .  A
C616        F621   1.358       .  S
C617        C618   1.412       .  A
C618        F619   1.358       .  S
C623        C624   1.421       .  A
C623        C628   1.402       .  A
C623        F630   1.358       .  S
C624        C625   1.401       .  A
C625        C626   1.401       .  A
C625        F632   1.357       .  S
C626        C627   1.414       .  A
C627        C628   1.398       .  A
C628        F629   1.358       .  S
C633        C634   1.416       .  A
C633        C638   1.400       .  A
C633        F640   1.357       .  S
C634        C635   1.402       .  A
C635        C636   1.401       .  A
C635        F642   1.358       .  S
C636        C637   1.415       .  A
C636        F641   1.358       .  S
C637        C638   1.398       .  A
C638        F639   1.357       .  S
C643        C644   1.420       .  A
C643        C648   1.400       .  A
C643        F650   1.358       .  S
C644        C645   1.402       .  A
C645        F652   1.357       .  S
C646        C647   1.410       .  A
C646        F651   1.357       .  S
C648        F649   1.358       .  S
C653        C654   1.404       .  A
C653        C658   1.404       .  A
C653        F660   1.358       .  S
C654        C655   1.419       .  A
C655        C656   1.402       .  A
C655        F662   1.358       .  S
C656        C657   1.397       .  A
C656        F661   1.357       .  S
C657        C658   1.414       .  A
C658        F659   1.358       .  S
C663       C1496   1.400   1_455  A
C663        C668   1.397       .  A
C663        F670   1.357       .  S
C664       C1495   1.400       .  A
C664        C665   1.414       .  A
C665        F672   1.359       .  S
C666       C1499   1.402       .  A
C666        F671   1.357       .  S
C667       C1498   1.403   1_455  A
C668        F669   1.359       .  S
C673        C674   1.407       .  A
C673        C678   1.398       .  A
C673        F680   1.358       .  S
C674        C675   1.420       .  A
C675        C676   1.401       .  A
C675        F682   1.358       .  S
C676        C677   1.397       .  A
C676        F681   1.357       .  S
C677        C678   1.406       .  A
C678        F679   1.358       .  S
C683        C684   1.402       .  A
C683        C688   1.398       .  A
C683        F690   1.358       .  S
C684        C685   1.418       .  A
C685        C686   1.400       .  A
C685       F1524   1.357       .  S
C686        C687   1.395       .  A
C686        F691   1.357       .  S
C687        C688   1.412       .  A
C688        F689   1.359       .  S
F692       C1517   1.357       .  S
C693        C694   1.419       .  A
C693        C698   1.401       .  A
C693        F700   1.358       .  S
C694        C695   1.402       .  A
C695        C696   1.400       .  A
C695        F702   1.358       .  S
C696        C697   1.419       .  A
C696        F701   1.358       .  S
C697        C698   1.402       .  A
C698        F699   1.357       .  S
C703        C704   1.418       .  A
C703        C708   1.405       .  A
C703        F710   1.358       .  S
C704        C705   1.401       .  A
C705        C706   1.402       .  A
C705        F712   1.358       .  S
C706        C707   1.423       .  A
C706        F711   1.358       .  S
C707        C708   1.404       .  A
C708        F709   1.357       .  S
C713        C714   1.416       .  A
C713        C718   1.396       .  A
C713        F720   1.359       .  S
C714        C715   1.397   1_554  A
C715        C716   1.396       .  A
C715        F722   1.357       .  S
C716        C717   1.416       .  A
C716        F721   1.359       .  S
C717        C718   1.400   1_556  A
C718        F719   1.357       .  S
C723       C1556   1.419       .  A
C723        C728   1.404       .  A
C723        F730   1.358       .  S
C724       C1555   1.420   1_455  A
C724        C725   1.400       .  A
C725        C726   1.402       .  A
C725        F732   1.358       .  S
C726       C1559   1.423   1_455  A
C726        F731   1.358       .  S
C727       C1558   1.422       .  A
C727        C728   1.402       .  A
C728        F729   1.358       .  S
C733        C734   1.396       .  A
C733        C738   1.399   1_556  A
C733        F740   1.358       .  S
C734        C735   1.407   1_556  A
C735        C736   1.397       .  A
C735        F742   1.358       .  S
C736        C737   1.405       .  A
C736        F741   1.358       .  S
C737        C738   1.420       .  A
C738        F739   1.358       .  S
C743        C744   1.398       .  A
C743        C748   1.401   1_554  A
C743        F750   1.356       .  S
C744        C745   1.407   1_554  A
C745        C746   1.401       .  A
C745        F752   1.358   1_556  S
C746        C747   1.409       .  A
C746        F751   1.358       .  S
C747        C748   1.417       .  A
C748        F749   1.358       .  S
C753        C754   1.405       .  A
C753        C758   1.398       .  A
C753        F760   1.358       .  S
C754        C755   1.420       .  A
C755        C756   1.400       .  A
C756        C757   1.395       .  A
C756        F761   1.357       .  S
C757        C758   1.410       .  A
C758        F759   1.358       .  S
C763        C764   1.397       .  A
C763        C768   1.400       .  A
C763        F770   1.358       .  S
C764        C765   1.412       .  A
C765        C766   1.397       .  A
C765        F772   1.358       .  S
C766        C767   1.402       .  A
C766        F771   1.358       .  S
C767        C768   1.418       .  A
C768        F769   1.358       .  S
C773        C774   1.405       .  A
C773        C778   1.401       .  A
C773        F780   1.357       .  S
C774       C1607   1.419       .  A
C775       C1606   1.419   1_455  A
C775        C776   1.402       .  A
C775        F782   1.358       .  S
C776        C777   1.403       .  A
C776        F781   1.358       .  S
C777       C1610   1.416   1_455  A
C778       C1609   1.415       .  A
C778        F779   1.358       .  S
C783       C1620   1.397       .  A
C783        F790   1.359       .  S
C784       C1617   1.401   1_554  A
C785       C1616   1.401   1_456  A
C785        F792   1.357       .  S
C786        C787   1.412       .  A
C786        F791   1.359       .  S
C787        C788   1.399   1_456  A
C788       C1615   1.395       .  A
C788       F1621   1.358       .  S
F789       C1620   1.358       .  S
C793        C794   1.411       .  A
C793        C798   1.399       .  A
C793        F800   1.358       .  S
C794        C795   1.394       .  A
C795        C796   1.398       .  A
C795        F802   1.358       .  S
C796        C797   1.420       .  A
C796        F801   1.358       .  S
C797        C798   1.402       .  A
C798        F799   1.358       .  S
C803        C804   1.409       .  A
C803        C808   1.398       .  A
C803        F810   1.358       .  S
C804        C805   1.394       .  A
C805        F812   1.357       .  S
C806        C807   1.419       .  A
C806        F811   1.357       .  S
C808        F809   1.358       .  S
C813        C814   1.412       .  A
C813        C818   1.402   1_554  A
C813        F820   1.358       .  S
C814        C815   1.408       .  A
C815        C816   1.398   1_554  A
C815        F822   1.357       .  S
C816        C817   1.403       .  A
C816        F821   1.358       .  S
C817        C818   1.403       .  A
C818        F819   1.357       .  S
C823        C824   1.418       .  A
C823        C828   1.400   1_556  A
C823       F1662   1.358   1_556  S
C824        C825   1.399       .  A
C825        C826   1.397       .  A
C825        F832   1.358       .  S
C826        C827   1.414   1_556  A
C826        F831   1.358       .  S
C827        C828   1.397       .  A
C828        F829   1.358       .  S
F830       C1655   1.357   1_455  S
O833       Al841   1.873       .  S
C834        O844   1.255       .  A
C834        O835   1.273       .  A
C834       C1223   1.488       .  S
O835       Al837   1.951       .  S
O836       Al837   1.843       .  S
O836        C838   1.247       .  A
Al837       O845   1.868       .  S
Al837       O846   1.756       .  S
C838        O851   1.276       .  A
C838       C1203   1.469       .  S
O839       Al841   1.862       .  S
O839        C849   1.252       .  A
O840       Al850   1.857       .  S
O840        C853   1.255       .  A
Al841       O854   1.986       .  S
Al841       O851   1.990       .  S
Al841       O846   1.761       .  S
O842       Al850   1.980       .  S
O842        C849   1.275       .  A
O843       Al850   1.975       .  S
O843        C852   1.278       .  A
O844       Al850   1.863       .  S
O845        C852   1.258       .  A
O846       Al850   1.763       .  S
O847        C848   1.275       .  A
C848       C1240   1.483       .  S
C849       C1233   1.467       .  S
C852       C1193   1.492       .  S
C853        O854   1.280       .  A
C853       C1213   1.487       .  S
O855       Al863   1.973       .  S
O855        C870   1.275       .  A
C856        O866   1.271       .  A
C856        O857   1.253       .  A
C856       C1586   1.491       .  S
O857       Al859   1.866       .  S
O858       Al859   1.987       .  S
O858        C860   1.279       .  A
Al859       O867   1.992       .  S
Al859       O869   1.862       .  S
Al859       O868   1.756       .  S
C860        O873   1.256       .  A
C860       C1160   1.472       .  S
O861       Al863   2.000       .  S
O861        C871   1.278       .  A
O862        C875   1.276       .  A
Al863       O876   1.868       .  S
Al863       O873   1.865       .  S
Al863       O868   1.762       .  S
O864       Al872   1.840       .  S
O864        C871   1.245       .  A
O865       Al872   1.851       .  S
O865        C874   1.254       .  A
O866       Al872   1.951       .  S
O867        C874   1.283       .  A
O868       Al872   1.757       .  S
O869        C870   1.256       .  A
C870       C1180   1.474       .  S
C871       C1200   1.470       .  S
C874       C1143   1.496       .  S
C875       C1153   1.487       .  S
O877       Al885   1.984       .  S
O877        C892   1.278       .  A
C878        O888   1.270       .  A
C878        O879   1.251       .  A
C878       C1210   1.472       .  S
O879       Al881   1.862       .  S
O880       Al881   1.971       .  S
O880        C882   1.274       .  A
Al881       O889   1.989       .  S
Al881       O891   1.855       .  S
Al881       O890   1.764       .  S
C882        O895   1.254       .  A
C882       C1150   1.466       .  S
O883       Al885   2.005       .  S
O883        C893   1.280       .  A
O884       Al894   1.975       .  S
O884        C897   1.275       .  A
Al885       O898   1.879       .  S
Al885       O895   1.861       .  S
Al885       O890   1.763       .  S
O886       Al894   1.840       .  S
O886        C893   1.246       .  A
O887       Al894   1.858       .  S
O887        C896   1.257       .  A
O888       Al894   1.952       .  S
O889        C896   1.281       .  A
O890       Al894   1.758       .  S
O891        C892   1.255       .  A
C892       C1220   1.475       .  S
C893       C1133   1.480       .  S
C896       C1120   1.496       .  S
C897        O898   1.258       .  A
C897       C1163   1.492       .  S
O899       Al907   1.881       .  S
O899        C914   1.257       .  A
C900        O910   1.253       .  A
C900        O901   1.268       .  A
C900       C1183   1.482       .  S
O901       Al903   1.942       .  S
O902       Al903   1.837       .  S
O902        C904   1.247       .  A
Al903       O911   1.849       .  S
Al903       O913   1.964       .  S
Al903       O912   1.760       .  S
C904        O917   1.281       .  A
C904       C1130   1.480       .  S
O905       Al907   1.852       .  S
O905        C915   1.254       .  A
O906       Al916   1.860       .  S
O906        C919   1.255       .  A
Al907       O920   1.980       .  S
Al907       O917   2.009       .  S
Al907       O912   1.762       .  S
O908       Al916   1.977       .  S
O908        C915   1.276       .  A
O909       Al916   1.993       .  S
O909        C918   1.283       .  A
O910       Al916   1.870       .  S
O911        C918   1.257       .  A
O912       Al916   1.762       .  S
O913        C914   1.272       .  A
C914       C1230   1.486       .  S
C915       C1243   1.475       .  S
C918       C1113   1.493       .  S
C919        O920   1.277       .  A
C919       C1173   1.476       .  S
O921       Al929   1.872       .  S
C922        O932   1.255       .  A
C922        O923   1.270       .  A
C922       C1063   1.478       .  S
O923       Al925   1.947       .  S
O924       Al925   1.850       .  S
O924        C926   1.248       .  A
Al925       O933   1.860       .  S
Al925       O934   1.761       .  S
C926        O939   1.279       .  A
C926       C1080   1.476       .  S
O927       Al929   1.855       .  S
O927        C937   1.254       .  A
O928       Al938   1.869       .  S
O928        C941   1.258       .  A
Al929       O942   1.988       .  S
Al929       O939   2.004       .  S
Al929       O934   1.759       .  S
O930       Al938   1.978       .  S
O930        C937   1.275       .  A
O931       Al938   1.989       .  S
O931        C940   1.281       .  A
O932       Al938   1.869       .  S
O933        C940   1.257       .  A
O934       Al938   1.763       .  S
O935        C936   1.274       .  A
C936       C1100   1.482       .  S
C937       C1093   1.468       .  S
C940       C1190   1.497       .  S
C941        O942   1.279       .  A
C941       C1070   1.490       .  S
O943       Al951   1.976       .  S
O943        C958   1.276       .  A
C944        O954   1.272       .  A
C944        O945   1.252       .  A
C944       C1459   1.482       .  S
O945       Al947   1.857       .  S
O946       Al947   1.987       .  S
O946        C948   1.279       .  A
Al947       O955   1.995       .  S
Al947       O957   1.864       .  S
Al947       O956   1.762       .  S
C948        O961   1.254       .  A
C948       C1033   1.477       .  S
O949       Al951   2.001       .  S
O949        C959   1.277       .  A
O950        C963   1.277       .  A
Al951       O964   1.871       .  S
Al951       O961   1.853       .  S
Al951       O956   1.763       .  S
O952       Al960   1.840       .  S
O952        C959   1.246       .  A
O953       Al960   1.855       .  S
O953        C962   1.255       .  A
O954       Al960   1.959       .  S
O955        C962   1.283       .  A
O956       Al960   1.759       .  S
O957        C958   1.257       .  A
C958       C1053   1.479       .  S
C959       C1083   1.473       .  S
C962       C1140   1.498       .  S
C963       C1020   1.486       .  S
O965       Al973   1.996       .  S
O965        C980   1.280       .  A
C966        O976   1.271       .  A
C966        O967   1.253       .  A
C966       C1073   1.484       .  S
O967       Al969   1.872       .  S
O968       Al969   1.991       .  S
O968        C970   1.279       .  A
Al969       O977   2.001       .  S
Al969       O979   1.859       .  S
Al969       O978   1.757       .  S
C970        O983   1.250       .  A
C970       C1023   1.472       .  S
O971       Al973   2.011       .  S
O971        C981   1.280       .  A
O972       Al982   1.983       .  S
O972        C985   1.276       .  A
Al973       O986   1.870       .  S
Al973       O983   1.841       .  S
Al973       O978   1.760       .  S
O974       Al982   1.831       .  S
O974        C981   1.244       .  A
O975       Al982   1.852       .  S
O975        C984   1.257       .  A
O976       Al982   1.957       .  S
O977        C984   1.285       .  A
O978       Al982   1.757       .  S
O979        C980   1.255       .  A
C980       C1060   1.491       .  S
C981       C1010   1.473       .  S
C984       C1123   1.499       .  S
C985        O986   1.256       .  A
C985       C1030   1.482       .  S
O987       Al995   1.873       .  S
O987       C1002   1.255       .  A
C988        O998   1.254       .  A
C988        O989   1.269       .  A
C988       C1050   1.483       .  S
O989       Al991   1.947       .  S
O990       Al991   1.832       .  S
O990        C992   1.246       .  A
Al991       O999   1.852       .  S
Al991      O1001   1.973       .  S
Al991      O1000   1.763       .  S
C992       O1005   1.281       .  A
C992       C1013   1.472       .  S
O993       Al995   1.845       .  S
O993       C1003   1.252       .  A
O994      Al1004   1.864       .  S
O994       C1007   1.256       .  A
Al995      O1008   1.981       .  S
Al995      O1005   2.009       .  S
Al995      O1000   1.759       .  S
O996      Al1004   1.978       .  S
O996       C1003   1.276       .  A
O997      Al1004   1.990       .  S
O997       C1006   1.283       .  A
O998      Al1004   1.870       .  S
O999       C1006   1.257       .  A
O1000     Al1004   1.759       .  S
O1001      C1002   1.273       .  A
C1002      C1090   1.486       .  S
C1003      C1103   1.471       .  S
C1006      C1110   1.493       .  S
C1007      O1008   1.278       .  A
C1007      C1040   1.486       .  S
C1009      C1010   1.418       .  A
C1009      C1014   1.396       .  A
C1009      F1016   1.359       .  S
C1010      C1011   1.399       .  A
C1011      C1012   1.397       .  A
C1011      F1018   1.358       .  S
C1012      C1013   1.417       .  A
C1012      F1017   1.359       .  S
C1013      C1014   1.398       .  A
C1014      F1015   1.358       .  S
C1019      C1020   1.421       .  A
C1019      C1024   1.401       .  A
C1019      F1026   1.358       .  S
C1020      C1021   1.401       .  A
C1021      C1022   1.397       .  A
C1021      F1028   1.358       .  S
C1022      C1023   1.412       .  A
C1022      F1027   1.358       .  S
C1023      C1024   1.395       .  A
C1024      F1025   1.358       .  S
C1029      C1030   1.398       .  A
C1029      C1034   1.398       .  A
C1029      F1036   1.358       .  S
C1030      C1031   1.418       .  A
C1031      C1032   1.400       .  A
C1031      F1038   1.357       .  S
C1032      C1033   1.396       .  A
C1032      F1037   1.358       .  S
C1033      C1034   1.415       .  A
C1034      F1035   1.358       .  S
C1039      C1040   1.417       .  A
C1039      C1044   1.403       .  A
C1039      F1046   1.358       .  S
C1040      C1041   1.399       .  A
C1041      C1042   1.401       .  A
C1041      F1048   1.357       .  S
C1042      C1043   1.417   1_545  A
C1042      F1463   1.358   1_545  S
C1043      C1360   1.486       .  S
C1043      C1044   1.400   1_565  A
C1044      F1045   1.358       .  S
F1047      C1458   1.358       .  S
C1049      C1050   1.416       .  A
C1049      C1054   1.399       .  A
C1049      F1056   1.358       .  S
C1050      C1051   1.401       .  A
C1051      C1052   1.401       .  A
C1051      F1058   1.358       .  S
C1052      C1053   1.415       .  A
C1052      F1057   1.358       .  S
C1053      C1054   1.398       .  A
C1054      F1055   1.357       .  S
C1059      C1060   1.421       .  A
C1059      C1064   1.400       .  A
C1059      F1066   1.358       .  S
C1060      C1061   1.402       .  A
C1061      C1478   1.402       .  A
C1061      F1068   1.357       .  S
C1062      C1477   1.401   1_545  A
C1062      C1063   1.414       .  A
C1062      F1067   1.358       .  S
C1063      C1480   1.398   1_545  A
C1064      C1479   1.396       .  A
C1064      F1065   1.358       .  S
C1069      C1070   1.403       .  A
C1069      C1074   1.404       .  A
C1069      F1076   1.358       .  S
C1070      C1071   1.418       .  A
C1071      C1072   1.401       .  A
C1071      F1078   1.358       .  S
C1072      C1073   1.398       .  A
C1072      F1077   1.357       .  S
C1073      C1074   1.415       .  A
C1074      F1075   1.358       .  S
C1079      C1084   1.398       .  A
C1079      F1086   1.357       .  S
C1080      C1081   1.414       .  A
C1081      C1498   1.401   1_545  A
C1081      F1088   1.359   1_545  S
C1082      C1497   1.400       .  A
C1082      F1087   1.357       .  S
C1083      C1500   1.413       .  A
C1084      C1499   1.413   1_545  A
C1084      F1085   1.359       .  S
C1089      C1090   1.404       .  A
C1089      C1094   1.397       .  A
C1089      F1096   1.358       .  S
C1090      C1091   1.420       .  A
C1091      C1092   1.399       .  A
C1091      F1098   1.357       .  S
C1092      C1093   1.395       .  A
C1092      F1097   1.357       .  S
C1093      C1094   1.408       .  A
C1094      F1095   1.358       .  S
C1099      C1100   1.402       .  A
C1099      C1104   1.397       .  A
C1099      F1106   1.358       .  S
C1100      C1101   1.418       .  A
C1101      C1102   1.399       .  A
C1102      C1103   1.395       .  A
C1102      F1107   1.357       .  S
C1103      C1104   1.412       .  A
C1104      F1105   1.359       .  S
C1109      C1110   1.419       .  A
C1109      C1114   1.401       .  A
C1109      F1116   1.358       .  S
C1110      C1111   1.402       .  A
C1111      C1112   1.400       .  A
C1111      F1118   1.357       .  S
C1112      C1113   1.419       .  A
C1112      F1117   1.358       .  S
C1113      C1114   1.402       .  A
C1114      F1115   1.357       .  S
C1119      C1120   1.419       .  A
C1119      C1124   1.403       .  A
C1119      F1126   1.358       .  S
C1120      C1121   1.402       .  A
C1121      C1122   1.403       .  A
C1121      F1128   1.358       .  S
C1122      C1123   1.421       .  A
C1122      F1127   1.359       .  S
C1123      C1124   1.403       .  A
C1124      F1125   1.357       .  S
C1129      C1130   1.419       .  A
C1129      C1134   1.397       .  A
C1129      F1136   1.359       .  S
C1130      C1131   1.398   1_554  A
C1131      C1132   1.398       .  A
C1131      F1138   1.357       .  S
C1132      C1133   1.419       .  A
C1132      F1137   1.359       .  S
C1133      C1134   1.399   1_556  A
C1134      F1135   1.357       .  S
C1139      C1144   1.402       .  A
C1139      F1146   1.358       .  S
C1140      C1141   1.402       .  A
C1141      C1142   1.403       .  A
C1141      F1148   1.358       .  S
C1142      F1147   1.358       .  S
C1143      C1144   1.401       .  A
C1144      F1145   1.358       .  S
C1149      C1150   1.396       .  A
C1149      C1154   1.399   1_556  A
C1149      F1156   1.358       .  S
C1150      C1151   1.406   1_556  A
C1151      C1152   1.397       .  A
C1151      F1158   1.358       .  S
C1152      C1153   1.405       .  A
C1152      F1157   1.358       .  S
C1153      C1154   1.420       .  A
C1154      F1155   1.358       .  S
C1159      C1160   1.400       .  A
C1159      C1164   1.403   1_554  A
C1159      F1166   1.358       .  S
C1160      C1161   1.406       .  A
C1161      C1162   1.401   1_554  A
C1161      F1168   1.358       .  S
C1162      C1163   1.409       .  A
C1162      F1167   1.358       .  S
C1163      C1164   1.415       .  A
C1164      F1165   1.358       .  S
C1169      C1170   1.405   1_545  A
C1169      C1174   1.399       .  A
C1169      F1176   1.358       .  S
C1170      C1272   1.491       .  S
C1170      C1171   1.421       .  A
C1171      C1172   1.402   1_565  A
C1171      F1594   1.358       .  S
C1172      C1173   1.396       .  A
C1172      F1177   1.357       .  S
C1173      C1174   1.411       .  A
C1174      F1175   1.358       .  S
F1178      C1587   1.358       .  S
C1179      C1180   1.397       .  A
C1179      C1184   1.401       .  A
C1179      F1186   1.358       .  S
C1180      C1181   1.411       .  A
C1181      C1182   1.396       .  A
C1181      F1188   1.358       .  S
C1182      C1183   1.402       .  A
C1182      F1187   1.358       .  S
C1183      C1184   1.417       .  A
C1184      F1185   1.357       .  S
C1189      C1190   1.404       .  A
C1189      C1194   1.403       .  A
C1189      F1196   1.358       .  S
C1191      C1192   1.401       .  A
C1191      F1198   1.359       .  S
C1192      C1193   1.403       .  A
C1192      F1197   1.358       .  S
C1194      F1195   1.358       .  S
C1199      C1616   1.414   1_545  A
C1199      F1206   1.359       .  S
C1200      C1615   1.414       .  A
C1201      C1618   1.398       .  A
C1201      F1208   1.357       .  S
C1202      C1617   1.397   1_545  A
C1202      C1203   1.412       .  A
C1202      F1207   1.359   1_545  S
C1203      C1204   1.401   1_556  A
C1209      C1210   1.411       .  A
C1209      C1214   1.400       .  A
C1209      F1216   1.358       .  S
C1210      C1211   1.394       .  A
C1211      C1212   1.398       .  A
C1211      F1218   1.358       .  S
C1212      C1213   1.421       .  A
C1212      F1217   1.358       .  S
C1213      C1214   1.403       .  A
C1214      F1215   1.358       .  S
C1219      C1220   1.412       .  A
C1219      C1224   1.398       .  A
C1219      F1226   1.358       .  S
C1220      C1221   1.396       .  A
C1221      C1638   1.401       .  A
C1221      F1228   1.357       .  S
C1222      C1637   1.400   1_545  A
C1222      C1223   1.420       .  A
C1222      F1227   1.357       .  S
C1223      C1640   1.404   1_545  A
C1224      C1639   1.402       .  A
C1224      F1225   1.358       .  S
C1229      C1230   1.412       .  A
C1229      C1234   1.401   1_554  A
C1229      F1236   1.358       .  S
C1230      C1231   1.409       .  A
C1231      C1232   1.399   1_554  A
C1231      F1238   1.357       .  S
C1232      C1233   1.403       .  A
C1232      F1237   1.358       .  S
C1233      C1234   1.403       .  A
C1234      F1235   1.357       .  S
C1239      C1240   1.418       .  A
C1239      C1244   1.400   1_556  A
C1240      C1241   1.401       .  A
C1241      C1242   1.398       .  A
C1241      F1248   1.358       .  S
C1242      C1243   1.412   1_556  A
C1242      F1247   1.358       .  S
C1243      C1244   1.397       .  A
C1244      F1245   1.357       .  S
O1249     Al1257   1.868       .  S
C1250      O1260   1.255       .  A
C1250      O1251   1.273       .  A
C1250      C1639   1.486       .  S
O1251     Al1253   1.951       .  S
O1252     Al1253   1.842       .  S
O1252      C1254   1.247       .  A
Al1253     O1261   1.864       .  S
Al1253     O1262   1.754       .  S
C1254      O1267   1.277       .  A
C1254      C1619   1.470       .  S
O1255     Al1257   1.859       .  S
O1255      C1265   1.252       .  A
O1256     Al1266   1.857       .  S
O1256      C1269   1.255       .  A
Al1257     O1270   1.986       .  S
Al1257     O1267   1.993       .  S
Al1257     O1262   1.760       .  S
O1258     Al1266   1.981       .  S
O1258      C1265   1.275       .  A
O1259     Al1266   1.978       .  S
O1259      C1268   1.278       .  A
O1260     Al1266   1.865       .  S
O1261      C1268   1.258       .  A
O1262     Al1266   1.761       .  S
O1263      C1264   1.275       .  A
C1264      C1656   1.484       .  S
C1265      C1649   1.466       .  S
C1268      C1609   1.491       .  S
C1269      O1270   1.279       .  A
C1269      C1629   1.486       .  S
O1271     Al1279   1.971       .  S
O1271      C1286   1.274       .  A
C1272      O1282   1.271       .  A
C1272      O1273   1.253       .  A
O1273     Al1275   1.866       .  S
O1274     Al1275   1.989       .  S
O1274      C1276   1.279       .  A
Al1275     O1283   1.996       .  S
Al1275     O1285   1.863       .  S
Al1275     O1284   1.758       .  S
C1276      O1289   1.256       .  A
C1276      C1576   1.471       .  S
O1277     Al1279   1.997       .  S
O1277      C1287   1.277       .  A
O1278      C1291   1.275       .  A
Al1279     O1292   1.869       .  S
Al1279     O1289   1.864       .  S
Al1279     O1284   1.763       .  S
O1280     Al1288   1.842       .  S
O1280      C1287   1.245       .  A
O1281     Al1288   1.849       .  S
O1281      C1290   1.253       .  A
O1282     Al1288   1.950       .  S
O1283      C1290   1.283       .  A
O1284     Al1288   1.756       .  S
O1285      C1286   1.256       .  A
C1286      C1596   1.474       .  S
C1287      C1616   1.472       .  S
C1290      C1559   1.499       .  S
C1291      C1569   1.486       .  S
O1293     Al1301   1.986       .  S
O1293      C1308   1.278       .  A
C1294      O1304   1.270       .  A
C1294      O1295   1.251       .  A
C1294      C1626   1.471       .  S
O1295     Al1297   1.862       .  S
O1296     Al1297   1.972       .  S
O1296      C1298   1.274       .  A
Al1297     O1305   1.993       .  S
Al1297     O1307   1.855       .  S
Al1297     O1306   1.763       .  S
C1298      O1311   1.254       .  A
C1298      C1566   1.465       .  S
O1299     Al1301   2.011       .  S
O1299      C1309   1.281       .  A
O1300     Al1310   1.975       .  S
O1300      C1313   1.275       .  A
Al1301     O1314   1.879       .  S
Al1301     O1311   1.860       .  S
Al1301     O1306   1.763       .  S
O1302     Al1310   1.837       .  S
O1302      C1309   1.245       .  A
O1303     Al1310   1.855       .  S
O1303      C1312   1.257       .  A
O1304     Al1310   1.952       .  S
O1305      C1312   1.282       .  A
O1306     Al1310   1.757       .  S
O1307      C1308   1.255       .  A
C1308      C1636   1.474       .  S
C1309      C1549   1.483       .  S
C1312      C1536   1.496       .  S
C1313      O1314   1.258       .  A
C1313      C1579   1.490       .  S
O1315     Al1323   1.884       .  S
O1315      C1330   1.258       .  A
C1316      O1326   1.253       .  A
C1316      O1317   1.267       .  A
C1316      C1599   1.481       .  S
O1317     Al1319   1.939       .  S
O1318     Al1319   1.837       .  S
O1318      C1320   1.248       .  A
Al1319     O1327   1.849       .  S
Al1319     O1329   1.958       .  S
Al1319     O1328   1.762       .  S
C1320      O1333   1.281       .  A
C1320      C1546   1.480       .  S
O1321     Al1323   1.853       .  S
O1321      C1331   1.254       .  A
O1322     Al1332   1.860       .  S
O1322      C1335   1.255       .  A
Al1323     O1336   1.978       .  S
Al1323     O1333   2.004       .  S
Al1323     O1328   1.762       .  S
O1324     Al1332   1.980       .  S
O1324      C1331   1.277       .  A
O1325     Al1332   1.995       .  S
O1325      C1334   1.283       .  A
O1326     Al1332   1.870       .  S
O1327      C1334   1.257       .  A
O1328     Al1332   1.762       .  S
O1329      C1330   1.271       .  A
C1330      C1646   1.482       .  S
C1331      C1659   1.480       .  S
C1334      C1529   1.494       .  S
C1335      O1336   1.276       .  A
C1335      C1589   1.474       .  S
O1337     Al1345   1.873       .  S
C1338      O1348   1.254       .  A
C1338      O1339   1.270       .  A
C1338      C1479   1.478       .  S
O1339     Al1341   1.951       .  S
O1340     Al1341   1.848       .  S
O1340      C1342   1.247       .  A
Al1341     O1349   1.863       .  S
Al1341     O1350   1.761       .  S
C1342      O1355   1.278       .  A
C1342      C1496   1.473       .  S
O1343     Al1345   1.855       .  S
O1343      C1353   1.254       .  A
O1344     Al1354   1.871       .  S
O1344      C1357   1.259       .  A
Al1345     O1358   1.986       .  S
Al1345     O1355   1.997       .  S
Al1345     O1350   1.761       .  S
O1346     Al1354   1.977       .  S
O1346      C1353   1.274       .  A
O1347     Al1354   1.987       .  S
O1347      C1356   1.280       .  A
O1348     Al1354   1.870       .  S
O1349      C1356   1.257       .  A
O1350     Al1354   1.764       .  S
O1351      C1352   1.275       .  A
C1352      C1516   1.487       .  S
C1353      C1509   1.466       .  S
C1356      C1606   1.498       .  S
C1357      O1358   1.278       .  A
C1357      C1486   1.490       .  S
O1359     Al1367   1.982       .  S
O1359      C1374   1.277       .  A
C1360      O1370   1.273       .  A
C1360      O1361   1.252       .  A
O1361     Al1363   1.859       .  S
O1362     Al1363   1.983       .  S
O1362      C1364   1.277       .  A
Al1363     O1371   1.991       .  S
Al1363     O1373   1.864       .  S
Al1363     O1372   1.764       .  S
C1364      O1377   1.254       .  A
C1364      C1449   1.474       .  S
O1365     Al1367   2.005       .  S
O1365      C1375   1.278       .  A
O1366      C1379   1.276       .  A
Al1367     O1380   1.871       .  S
Al1367     O1377   1.852       .  S
Al1367     O1372   1.762       .  S
O1368     Al1376   1.840       .  S
O1368      C1375   1.246       .  A
O1369     Al1376   1.859       .  S
O1369      C1378   1.256       .  A
O1370     Al1376   1.961       .  S
O1371      C1378   1.282       .  A
O1372     Al1376   1.758       .  S
O1373      C1374   1.257       .  A
C1374      C1469   1.480       .  S
C1375      C1499   1.474       .  S
C1378      C1556   1.496       .  S
C1379      C1436   1.487       .  S
O1381     Al1389   1.987       .  S
O1381      C1396   1.278       .  A
C1382      O1392   1.272       .  A
C1382      O1383   1.253       .  A
C1382      C1489   1.482       .  S
O1383     Al1385   1.868       .  S
O1384     Al1385   1.993       .  S
O1384      C1386   1.279       .  A
Al1385     O1393   2.004       .  S
Al1385     O1395   1.860       .  S
Al1385     O1394   1.757       .  S
C1386      O1399   1.251       .  A
C1386      C1439   1.473       .  S
O1387     Al1389   2.008       .  S
O1387      C1397   1.280       .  A
O1388     Al1398   1.983       .  S
O1388      C1401   1.276       .  A
Al1389     O1402   1.867       .  S
Al1389     O1399   1.844       .  S
Al1389     O1394   1.760       .  S
O1390     Al1398   1.833       .  S
O1390      C1397   1.244       .  A
O1391     Al1398   1.852       .  S
O1391      C1400   1.256       .  A
O1392     Al1398   1.958       .  S
O1393      C1400   1.285       .  A
O1394     Al1398   1.757       .  S
O1395      C1396   1.256       .  A
C1396      C1476   1.484       .  S
C1397      C1426   1.473       .  S
C1400      C1539   1.501       .  S
C1401      O1402   1.255       .  A
C1401      C1446   1.479       .  S
O1403     Al1411   1.875       .  S
O1403      C1418   1.255       .  A
C1404      O1414   1.254       .  A
C1404      O1405   1.269       .  A
C1404      C1466   1.485       .  S
O1405     Al1407   1.947       .  S
O1406     Al1407   1.830       .  S
O1406      C1408   1.245       .  A
Al1407     O1415   1.853       .  S
Al1407     O1417   1.971       .  S
Al1407     O1416   1.762       .  S
C1408      O1421   1.282       .  A
C1408      C1429   1.475       .  S
O1409     Al1411   1.850       .  S
O1409      C1419   1.253       .  A
O1410     Al1420   1.861       .  S
O1410      C1423   1.255       .  A
Al1411     O1424   1.985       .  S
Al1411     O1421   2.016       .  S
Al1411     O1416   1.761       .  S
O1412     Al1420   1.980       .  S
O1412      C1419   1.276       .  A
O1413     Al1420   1.990       .  S
O1413      C1422   1.283       .  A
O1414     Al1420   1.873       .  S
O1415      C1422   1.258       .  A
O1416     Al1420   1.757       .  S
O1417      C1418   1.273       .  A
C1418      C1506   1.488       .  S
C1419      C1519   1.473       .  S
C1422      C1526   1.494       .  S
C1423      O1424   1.279       .  A
C1423      C1456   1.488       .  S
C1425      C1426   1.417       .  A
C1425      C1430   1.397       .  A
C1425      F1432   1.359       .  S
C1426      C1427   1.398       .  A
C1427      C1428   1.396       .  A
C1427      F1434   1.358       .  S
C1428      C1429   1.418       .  A
C1428      F1433   1.359       .  S
C1429      C1430   1.399       .  A
C1430      F1431   1.357       .  S
C1435      C1436   1.421       .  A
C1435      C1440   1.402       .  A
C1435      F1442   1.358       .  S
C1436      C1437   1.402       .  A
C1437      C1438   1.397       .  A
C1437      F1444   1.358       .  S
C1438      C1439   1.412       .  A
C1438      F1443   1.358       .  S
C1439      C1440   1.396       .  A
C1440      F1441   1.358       .  S
C1445      C1446   1.398       .  A
C1445      C1450   1.397       .  A
C1445      F1452   1.358       .  S
C1446      C1447   1.418       .  A
C1447      C1448   1.399       .  A
C1447      F1454   1.357       .  S
C1448      C1449   1.396       .  A
C1448      F1453   1.358       .  S
C1449      C1450   1.414       .  A
C1450      F1451   1.358       .  S
C1455      C1456   1.420       .  A
C1455      C1460   1.402       .  A
C1455      F1462   1.358       .  S
C1456      C1457   1.399       .  A
C1457      C1458   1.400       .  A
C1457      F1464   1.357       .  S
C1458      C1459   1.415       .  A
C1459      C1460   1.398       .  A
C1460      F1461   1.358       .  S
C1465      C1466   1.417       .  A
C1465      C1470   1.401       .  A
C1465      F1472   1.357       .  S
C1466      C1467   1.402       .  A
C1467      C1468   1.400       .  A
C1467      F1474   1.358       .  S
C1468      C1469   1.414       .  A
C1468      F1473   1.358       .  S
C1469      C1470   1.398       .  A
C1470      F1471   1.357       .  S
C1475      C1476   1.418       .  A
C1475      C1480   1.399       .  A
C1475      F1482   1.358       .  S
C1476      C1477   1.401       .  A
C1477      F1484   1.357       .  S
C1478      C1479   1.412       .  A
C1478      F1483   1.357       .  S
C1480      F1481   1.358       .  S
C1485      C1486   1.403       .  A
C1485      C1490   1.403       .  A
C1485      F1492   1.358       .  S
C1486      C1487   1.418       .  A
C1487      C1488   1.401       .  A
C1487      F1494   1.358       .  S
C1488      C1489   1.397       .  A
C1488      F1493   1.357       .  S
C1489      C1490   1.414       .  A
C1490      F1491   1.358       .  S
C1495      C1500   1.396       .  A
C1495      F1502   1.357       .  S
C1496      C1497   1.414       .  A
C1497      F1504   1.359       .  S
C1498      F1503   1.357       .  S
C1500      F1501   1.359       .  S
C1505      C1506   1.406       .  A
C1505      C1510   1.397       .  A
C1505      F1512   1.358       .  S
C1506      C1507   1.420       .  A
C1507      C1508   1.400       .  A
C1507      F1514   1.358       .  S
C1508      C1509   1.396       .  A
C1508      F1513   1.357       .  S
C1509      C1510   1.407       .  A
C1510      F1511   1.358       .  S
C1515      C1516   1.404       .  A
C1515      C1520   1.399       .  A
C1515      F1522   1.358       .  S
C1516      C1517   1.419       .  A
C1517      C1518   1.400       .  A
C1518      C1519   1.395       .  A
C1518      F1523   1.357       .  S
C1519      C1520   1.411       .  A
C1520      F1521   1.359       .  S
C1525      C1526   1.420       .  A
C1525      C1530   1.402       .  A
C1525      F1532   1.358       .  S
C1526      C1527   1.402       .  A
C1527      C1528   1.400       .  A
C1527      F1534   1.358       .  S
C1528      C1529   1.419       .  A
C1528      F1533   1.358       .  S
C1529      C1530   1.402       .  A
C1530      F1531   1.357       .  S
C1535      C1536   1.419       .  A
C1535      C1540   1.404       .  A
C1535      F1542   1.358       .  S
C1536      C1537   1.402       .  A
C1537      C1538   1.403       .  A
C1537      F1544   1.358       .  S
C1538      C1539   1.422       .  A
C1538      F1543   1.358       .  S
C1539      C1540   1.403       .  A
C1540      F1541   1.357       .  S
C1545      C1546   1.419       .  A
C1545      C1550   1.397       .  A
C1545      F1552   1.359       .  S
C1546      C1547   1.397   1_554  A
C1547      C1548   1.396       .  A
C1547      F1554   1.358       .  S
C1548      C1549   1.421       .  A
C1548      F1553   1.359       .  S
C1549      C1550   1.399   1_556  A
C1550      F1551   1.357       .  S
C1555      C1560   1.403       .  A
C1555      F1562   1.358       .  S
C1556      C1557   1.401       .  A
C1557      C1558   1.402       .  A
C1557      F1564   1.358       .  S
C1558      F1563   1.358       .  S
C1559      C1560   1.402       .  A
C1560      F1561   1.358       .  S
C1565      C1566   1.395       .  A
C1565      C1570   1.398   1_556  A
C1565      F1572   1.357       .  S
C1566      C1567   1.406   1_556  A
C1567      C1568   1.398       .  A
C1567      F1574   1.358       .  S
C1568      C1569   1.406       .  A
C1568      F1573   1.358       .  S
C1569      C1570   1.419       .  A
C1570      F1571   1.358       .  S
C1575      C1576   1.402       .  A
C1575      C1580   1.403   1_554  A
C1575      F1582   1.358       .  S
C1576      C1577   1.405       .  A
C1577      C1578   1.401   1_554  A
C1577      F1584   1.358       .  S
C1578      C1579   1.409       .  A
C1578      F1583   1.357       .  S
C1579      C1580   1.414       .  A
C1580      F1581   1.358       .  S
C1585      C1586   1.406       .  A
C1585      C1590   1.398       .  A
C1585      F1592   1.358       .  S
C1586      C1587   1.420       .  A
C1587      C1588   1.402       .  A
C1588      C1589   1.396       .  A
C1588      F1593   1.357       .  S
C1589      C1590   1.409       .  A
C1590      F1591   1.358       .  S
C1595      C1596   1.398       .  A
C1595      C1600   1.400       .  A
C1595      F1602   1.358       .  S
C1596      C1597   1.411       .  A
C1597      C1598   1.396       .  A
C1597      F1604   1.358       .  S
C1598      C1599   1.402       .  A
C1598      F1603   1.358       .  S
C1599      C1600   1.417       .  A
C1600      F1601   1.358       .  S
C1605      C1606   1.405       .  A
C1605      C1610   1.403       .  A
C1605      F1612   1.357       .  S
C1607      C1608   1.401       .  A
C1607      F1614   1.359       .  S
C1608      C1609   1.403       .  A
C1608      F1613   1.358       .  S
C1610      F1611   1.358       .  S
C1615      F1622   1.359       .  S
C1617      F1624   1.356       .  S
C1618      C1619   1.413       .  A
C1618      F1623   1.359       .  S
C1619      C1620   1.400   1_556  A
C1625      C1626   1.411       .  A
C1625      C1630   1.400       .  A
C1625      F1632   1.358       .  S
C1626      C1627   1.394       .  A
C1627      C1628   1.397       .  A
C1627      F1634   1.358       .  S
C1628      C1629   1.421       .  A
C1628      F1633   1.358       .  S
C1629      C1630   1.403       .  A
C1630      F1631   1.358       .  S
C1635      C1636   1.412       .  A
C1635      C1640   1.399       .  A
C1635      F1642   1.358       .  S
C1636      C1637   1.394       .  A
C1637      F1644   1.357       .  S
C1638      C1639   1.419       .  A
C1638      F1643   1.357       .  S
C1640      F1641   1.358       .  S
C1645      C1646   1.409       .  A
C1645      C1650   1.400   1_554  A
C1645      F1652   1.358       .  S
C1646      C1647   1.409       .  A
C1647      C1648   1.399   1_554  A
C1647      F1654   1.357       .  S
C1648      C1649   1.403       .  A
C1648      F1653   1.358       .  S
C1649      C1650   1.404       .  A
C1650      F1651   1.358       .  S
C1655      C1656   1.417   1_554  A
C1655      C1660   1.402       .  A
C1656      C1657   1.400       .  A
C1657      C1658   1.399       .  A
C1657      F1664   1.358       .  S
C1658      C1659   1.414   1_556  A
C1658      F1663   1.358       .  S
C1659      C1660   1.398       .  A
C1660      F1661   1.358       .  S
