geometry optimzed in LAMMPS
_audit_creation_date              2020-11-30 
_audit_creation_method            'lammps2cif' 
_symmetry_space_group_name_H-M    'P1' 
_symmetry_Int_Tables_number       1 
_symmetry_cell_setting            triclinic 
loop_ 
_symmetry_equiv_pos_as_xyz 
  x,y,z 
_cell_length_a                    39.898971537171825 
_cell_length_b                    38.88155015944715 
_cell_length_c                    35.80093674895189 
_cell_angle_alpha                 89.90461164199029 
_cell_angle_beta                  89.64261734854216 
_cell_angle_gamma                 90.03670122414998 
loop_ 
_atom_site_label 
_atom_site_type_symbol 
_atom_site_fract_x 
_atom_site_fract_y 
_atom_site_fract_z 
_atom_site_charge 
O1          O  0.92298333  0.09858331  0.06234820    -0.82300
C2          C  0.80822613  0.03373905  0.12106847     0.97060
O3          O  0.83794415  0.02334469  0.12576348    -0.71410
O4          O  0.87843558  0.00903858  0.07221162    -0.75010
Al5        Al  0.88125411  0.04186362  0.11245197     1.48980
C6          C  0.89052821  0.01211013  0.03989647     0.92310
O7          O  0.84553201  0.06864072  0.01454097    -0.81230
O8          O  0.85470526  0.14545139  0.08701410    -0.74780
Al9        Al  0.88471863  0.08307151  0.03933138     1.90120
O10         O  0.81214365  0.10045513  0.05076200    -0.73850
O11         O  0.84554195  0.10755661  0.14784712    -0.73700
O12         O  0.80302745  0.06421815  0.11028911    -0.79360
O13         O  0.88411904  0.06868175  0.15729847    -0.77570
O14         O  0.86567240  0.07582615  0.08409647    -1.13700
O15         O  0.92804591  0.05614321  0.10347325    -0.72900
C16         C  0.93921245  0.08342296  0.08758231     0.97820
C17         C  0.81784163  0.08338834  0.02131967     0.94220
Al18       Al  0.83165239  0.10222691  0.09813076     1.55560
O19         O  0.90455692  0.03963770  0.03138739    -0.77520
C20         C  0.86694733  0.09387233  0.16877185     0.98390
C21         C  0.86620644  0.15247142  0.05486114     0.93270
O22         O  0.87237354  0.12875618  0.03245480    -0.82840
O23         O  0.61386468  0.09727552  0.93599539    -0.82300
C24         C  0.69239436  0.19783055  0.86760508     0.97060
O25         O  0.69317887  0.16601902  0.85885252    -0.71410
O26         O  0.70364426  0.13774753  0.92204072    -0.75010
Al27       Al  0.67312097  0.12690118  0.88579659     1.48980
C28         C  0.70075533  0.12605794  0.95440928     0.92310
O29         O  0.64196855  0.18129905  0.97345506    -0.81230
O30         O  0.57983198  0.16431957  0.88774691    -0.74780
Al31       Al  0.62866283  0.13967652  0.95338294     1.90120
O32         O  0.61577315  0.21320729  0.93211702    -0.73850
O33         O  0.62702119  0.16706421  0.83495598    -0.73700
O34         O  0.66560220  0.21029127  0.88133898    -0.79360
O35         O  0.64451306  0.11474232  0.84704877    -0.77570
O36         O  0.64190487  0.15141470  0.90820326    -1.13700
O37         O  0.66133774  0.08210015  0.91074953    -0.72900
C38         C  0.63550159  0.07470401  0.93040002     0.97820
C39         C  0.62901011  0.20942170  0.96435509     0.94220
Al40       Al  0.62316284  0.18661795  0.88549162     1.55560
O41         O  0.67212146  0.12206250  0.96936557    -0.77520
C42         C  0.63206805  0.13609587  0.82463172     0.98390
C43         C  0.56683424  0.15187028  0.91720038     0.93270
O44         O  0.58288189  0.15398398  0.94747078    -0.82840
O45         O  0.89419695  0.38584172  0.93517264    -0.82300
C46         C  0.81315510  0.28595479  0.86758485     0.97060
O47         O  0.81289527  0.31781670  0.85877176    -0.71410
O48         O  0.80370273  0.34838294  0.92119105    -0.75010
Al49       Al  0.83447889  0.35673388  0.88445555     1.48980
C50         C  0.80793932  0.35740356  0.95426239     0.92310
O51         O  0.86574683  0.30060818  0.97244562    -0.81230
O52         O  0.92610654  0.31694120  0.88441622    -0.74780
Al53       Al  0.87928667  0.34267956  0.95188746     1.90120
O54         O  0.89017451  0.26868723  0.92974445    -0.73850
O55         O  0.87866027  0.31442454  0.83342273    -0.73700
O56         O  0.83967753  0.27299269  0.88107418    -0.79360
O57         O  0.86343515  0.36752221  0.84485007    -0.77570
O58         O  0.86510403  0.33140133  0.90686143    -1.13700
O59         O  0.84739949  0.40067515  0.90830310    -0.72900
C60         C  0.87295097  0.40843559  0.92767347     0.97820
C61         C  0.87728687  0.27209022  0.96224604     0.94220
Al62       Al  0.88260359  0.29556350  0.88378431     1.55560
O63         O  0.83666030  0.36000123  0.96872991    -0.77520
C64         C  0.87537703  0.34547859  0.82286020     0.98390
C65         C  0.94013157  0.32867146  0.91332230     0.93270
O66         O  0.92480573  0.32784377  0.94433723    -0.82840
O67         O  0.57843568  0.38206194  0.05993491    -0.82300
C68         C  0.69163611  0.44155581  0.12503484     0.97060
O69         O  0.66235959  0.45393775  0.12591613    -0.71410
O70         O  0.62501355  0.46793350  0.07071284    -0.75010
Al71       Al  0.61923414  0.43703004  0.11183031     1.48980
C72         C  0.61757113  0.46441984  0.03697045     0.92310
O73         O  0.66308548  0.40090279  0.01946650    -0.81230
O74         O  0.64067811  0.33052806  0.09555294    -0.74780
Al75       Al  0.62031169  0.39240834  0.04063257     1.90120
O76         O  0.68935569  0.36956729  0.06206873    -0.73850
O77         O  0.64700090  0.37049504  0.15440180    -0.73700
O78         O  0.69581642  0.40976159  0.11878802    -0.79360
O79         O  0.61231269  0.41373826  0.15812342    -0.77570
O80         O  0.63519231  0.40077003  0.08690449    -1.13700
O81         O  0.57304389  0.42421357  0.10118845    -0.72900
C82         C  0.56200945  0.39722888  0.08517250     0.97820
C83         C  0.68800760  0.38335588  0.03023298     0.94220
Al84       Al  0.66564557  0.37261730  0.10643458     1.55560
O85         O  0.60666103  0.43630068  0.02604471    -0.77520
C86         C  0.62549226  0.38738832  0.17216082     0.98390
C87         C  0.63110199  0.32295451  0.06292443     0.93270
O88         O  0.62827289  0.34585197  0.03888244    -0.82840
O89         O  0.91619139  0.13291982  0.43378689    -0.82300
C90         C  0.81006049  0.19995674  0.36261092     0.97060
O91         O  0.83945820  0.21201106  0.36468089    -0.71410
O92         O  0.87876538  0.22515739  0.41902679    -0.75010
Al93       Al  0.88128164  0.19167224  0.37924789     1.48980
C94         C  0.88844744  0.22144338  0.45200771     0.92310
O95         O  0.83603324  0.17023498  0.47090552    -0.81230
O96         O  0.84982109  0.08824958  0.40653936    -0.74780
Al97       Al  0.87659798  0.15180998  0.45241687     1.90120
O98         O  0.80469028  0.13828307  0.43273028    -0.73850
O99         O  0.85077471  0.12205956  0.34216326    -0.73700
O100        O  0.80479150  0.16849360  0.36900534    -0.79360
O101        O  0.88460527  0.16605792  0.33394715    -0.77570
O102        O  0.86264622  0.15822911  0.40583274    -1.13700
O103        O  0.92626325  0.17390544  0.39125075    -0.72900
C104        C  0.93513895  0.14691397  0.40952509     0.97820
C105        C  0.80800601  0.15760322  0.46115820     0.94220
Al106      Al  0.83029896  0.13139759  0.38870961     1.55560
O107        O  0.89900088  0.19294759  0.46190853    -0.77520
C108        C  0.87087547  0.13899327  0.32215611     0.98390
C109        C  0.85455512  0.08341066  0.44097094     0.93270
O110        O  0.85992000  0.10849176  0.46145229    -0.82840
O111        O  0.60907712  0.13717976  0.56035702    -0.82300
C112        C  0.69169471  0.03552977  0.62343458     0.97060
O113        O  0.69269789  0.06743325  0.63170057    -0.71410
O114        O  0.70027616  0.09943890  0.56881246    -0.75010
Al115      Al  0.67052114  0.10693202  0.60786834     1.48980
C116        C  0.69528768  0.11303117  0.53755096     0.92310
O117        O  0.63830066  0.05386432  0.51944617    -0.81230
O118        O  0.57830423  0.06726710  0.60850299    -0.74780
Al119      Al  0.62429895  0.09501307  0.54143761     1.90120
O120        O  0.61429380  0.02050691  0.56150136    -0.73850
O121        O  0.62669103  0.06334604  0.65873954    -0.73700
O122        O  0.66492307  0.02307313  0.60999654    -0.79360
O123        O  0.64291423  0.11663542  0.64935338    -0.77570
O124        O  0.63926503  0.08238688  0.58581505    -1.13700
O125        O  0.65644122  0.15161501  0.58637433    -0.72900
C126        C  0.63031935  0.15982136  0.56809100     0.97820
C127        C  0.62717343  0.02491198  0.52911065     0.94220
Al128      Al  0.62204758  0.04593469  0.60812067     1.55560
O129        O  0.66600507  0.11470906  0.52435448    -0.77520
C130        C  0.63117546  0.09376130  0.67059932     0.98390
C131        C  0.56398199  0.07929405  0.57984226     0.93270
O132        O  0.57925053  0.07882326  0.54881585    -0.82840
O133        O  0.58403117  0.35134246  0.43587681    -0.82300
C134        C  0.69424811  0.29067011  0.36440559     0.97060
O135        O  0.66553357  0.27709127  0.36702103    -0.71410
O136        O  0.63009747  0.26237512  0.42487758    -0.75010
Al137      Al  0.62288601  0.29377386  0.38352476     1.48980
C138        C  0.61903876  0.26590737  0.45752700     0.92310
O139        O  0.66769104  0.32343436  0.47234933    -0.81230
O140        O  0.64517096  0.39985476  0.40277823    -0.74780
Al141      Al  0.62521504  0.33709283  0.45435745     1.90120
O142        O  0.69517119  0.35691692  0.43163541    -0.73850
O143        O  0.64757410  0.36303971  0.34177802    -0.73700
O144        O  0.69789829  0.32243059  0.37049228    -0.79360
O145        O  0.61517644  0.31767648  0.33775938    -0.77570
O146        O  0.63916198  0.32972554  0.40769791    -1.13700
O147        O  0.57684946  0.30723926  0.39690368    -0.72900
C148        C  0.56643765  0.33500897  0.41246356     0.97820
C149        C  0.69444693  0.33781974  0.46050623     0.94220
Al150      Al  0.66900521  0.35830798  0.38799525     1.55560
O151        O  0.60646322  0.29391614  0.46653011    -0.77520
C152        C  0.62668926  0.34523822  0.32418730     0.98390
C153        C  0.63808559  0.40655497  0.43636067     0.93270
O154        O  0.63776912  0.38295108  0.45987468    -0.82840
O155        O  0.89865262  0.35311151  0.55832309    -0.82300
C156        C  0.81205441  0.44718173  0.62575835     0.97060
O157        O  0.81150239  0.41484735  0.63206039    -0.71410
O158        O  0.80593773  0.38610181  0.56796658    -0.75010
Al159      Al  0.83545247  0.37742851  0.60615588     1.48980
C160        C  0.81123568  0.37443841  0.53593006     0.92310
O161        O  0.86636472  0.43557076  0.52060743    -0.81230
O162        O  0.92699324  0.42006640  0.60815873    -0.74780
Al163      Al  0.88169150  0.39459592  0.54057937     1.90120
O164        O  0.88761222  0.46828023  0.56496224    -0.73850
O165        O  0.87900481  0.41905842  0.65943760    -0.73700
O166        O  0.83901114  0.46108194  0.61445065    -0.79360
O167        O  0.86270807  0.36652486  0.64684831    -0.77570
O168        O  0.86597580  0.40441750  0.58563590    -1.13700
O169        O  0.85159797  0.33415093  0.58160945    -0.72900
C170        C  0.87824408  0.32900531  0.56245259     0.97820
C171        C  0.87474330  0.46465802  0.53257395     0.94220
Al172      Al  0.88228236  0.43990509  0.61009717     1.55560
O173        O  0.84064964  0.37377348  0.52245637    -0.77520
C174        C  0.87495620  0.38789870  0.66926431     0.98390
C175        C  0.94105814  0.40937668  0.57857230     0.93270
O176        O  0.92563786  0.41279590  0.54817301    -0.82840
O177        O  0.08696453  0.12916851  0.06162907    -0.82300
C178        C  0.19258953  0.19543379  0.13427514     0.97060
O179        O  0.16325727  0.20724267  0.13140558    -0.71410
O180        O  0.12714806  0.22024050  0.07464414    -0.75010
Al181      Al  0.12198163  0.18797738  0.11516633     1.48980
C182        C  0.11881159  0.21635547  0.04119149     0.92310
O183        O  0.17034687  0.16159946  0.02626330    -0.81230
O184        O  0.15110325  0.08338402  0.09421780    -0.74780
Al185      Al  0.12826649  0.14565361  0.04366367     1.90120
O186        O  0.19897891  0.13008810  0.06721354    -0.73850
O187        O  0.14951575  0.11938138  0.15608512    -0.73700
O188        O  0.19813988  0.16381722  0.12895047    -0.79360
O189        O  0.11529480  0.16318236  0.16068236    -0.77570
O190        O  0.14079195  0.15335791  0.09055197    -1.13700
O191        O  0.07738138  0.17212524  0.10159793    -0.72900
C192        C  0.06831463  0.14441145  0.08525711     0.97820
C193        C  0.19768788  0.14904775  0.03831929     0.94220
Al194      Al  0.17181561  0.12633577  0.11031289     1.55560
O195        O  0.10865812  0.18774765  0.03091857    -0.77520
C196        C  0.12773424  0.13601955  0.17395199     0.98390
C197        C  0.14592778  0.07693846  0.06022160     0.93270
O198        O  0.14304506  0.10088468  0.03753909    -0.82840
O199        O  0.39807690  0.13360955  0.93364388    -0.82300
C200        C  0.31246784  0.03483946  0.87094032     0.97060
O201        O  0.31172066  0.06696067  0.86340125    -0.71410
O202        O  0.30557276  0.09953099  0.92601469    -0.75010
Al203      Al  0.33530947  0.10594488  0.88679945     1.48980
C204        C  0.31124737  0.11272429  0.95722156     0.92310
O205        O  0.36619363  0.05153108  0.97476260    -0.81230
O206        O  0.42662564  0.06409660  0.88557102    -0.74780
Al207      Al  0.38152320  0.09222047  0.95283039     1.90120
O208        O  0.38948132  0.01785707  0.93261008    -0.73850
O209        O  0.37797075  0.06143744  0.83532558    -0.73700
O210        O  0.33914025  0.02184034  0.88400525    -0.79360
O211        O  0.36256505  0.11490443  0.84502139    -0.77570
O212        O  0.36599696  0.08034131  0.90850484    -1.13700
O213        O  0.35121205  0.15019102  0.90822463    -0.72900
C214        C  0.37760542  0.15715357  0.92673830     0.97820
C215        C  0.37678686  0.02241872  0.96509868     0.94220
Al216      Al  0.38239648  0.04370485  0.88595340     1.55560
O217        O  0.34063009  0.11334617  0.97025735    -0.77520
C218        C  0.37328632  0.09183926  0.82356288     0.98390
C219        C  0.44126982  0.07520837  0.91442396     0.93270
O220        O  0.42600224  0.07448852  0.94542769    -0.82840
O221        O  0.10724942  0.35299001  0.93994942    -0.82300
C222        C  0.19151040  0.44735240  0.86774223     0.97060
O223        O  0.19192747  0.41502971  0.86164082    -0.71410
O224        O  0.19846175  0.38956871  0.92686566    -0.75010
Al225      Al  0.16913613  0.37814679  0.88960585     1.48980
C226        C  0.19380049  0.38058048  0.96001108     0.92310
O227        O  0.13706147  0.43813510  0.97200137    -0.81230
O228        O  0.07711795  0.41957919  0.88533319    -0.74780
Al229      Al  0.12276841  0.39613921  0.95438895     1.90120
O230        O  0.11451796  0.46939309  0.92738733    -0.73850
O231        O  0.12561229  0.41714113  0.83440078    -0.73700
O232        O  0.16456115  0.46133211  0.87888497    -0.79360
O233        O  0.14196918  0.36507601  0.84963140    -0.77570
O234        O  0.13792873  0.40485412  0.90892877    -1.13700
O235        O  0.15464730  0.33525449  0.91646916    -0.72900
C236        C  0.12842651  0.32956855  0.93621169     0.97820
C237        C  0.12747549  0.46660936  0.95978909     0.94220
Al238      Al  0.12136761  0.43964622  0.88319271     1.55560
O239        O  0.16456918  0.37804593  0.97360856    -0.77520
C240        C  0.13049289  0.38574118  0.82579031     0.98390
C241        C  0.06290574  0.40888717  0.91485388     0.93270
O242        O  0.07795224  0.41182879  0.94564601    -0.82840
O243        O  0.41915087  0.34842985  0.06109805    -0.82300
C244        C  0.30712840  0.28766791  0.12863178     0.97060
O245        O  0.33582739  0.27403525  0.12678819    -0.71410
O246        O  0.37333471  0.25957087  0.07036768    -0.75010
Al247      Al  0.37886331  0.29094721  0.11191426     1.48980
C248        C  0.38474326  0.26333089  0.03788917     0.92310
O249        O  0.33707789  0.32225447  0.02030338    -0.81230
O250        O  0.35706457  0.39742187  0.09172732    -0.74780
Al251      Al  0.37878634  0.33465712  0.04084364     1.90120
O252        O  0.30825160  0.35463855  0.06092795    -0.73850
O253        O  0.35280475  0.36003748  0.15276259    -0.73700
O254        O  0.30360284  0.31939519  0.12200441    -0.79360
O255        O  0.38486201  0.31458484  0.15799438    -0.77570
O256        O  0.36320808  0.32694533  0.08692826    -1.13700
O257        O  0.42522181  0.30469488  0.10073807    -0.72900
C258        C  0.43573926  0.33270922  0.08577759     0.97820
C259        C  0.31065289  0.33798070  0.03056434     0.94220
Al260      Al  0.33285757  0.35550827  0.10560570     1.55560
O261        O  0.39709343  0.29146781  0.02887604    -0.77520
C262        C  0.37285807  0.34196551  0.17124949     0.98390
C263        C  0.36565953  0.40408852  0.05849285     0.93270
O264        O  0.36721317  0.38044413  0.03527720    -0.82840
O265        O  0.08267455  0.10013095  0.43762388    -0.82300
C266        C  0.19115079  0.03484713  0.36677483     0.97060
O267        O  0.16207104  0.02222179  0.36990141    -0.71410
O268        O  0.12633617  0.01005053  0.42779430    -0.75010
Al269      Al  0.11984965  0.04068537  0.38588440     1.48980
C270        C  0.11619545  0.01434948  0.46065445     0.92310
O271        O  0.16639710  0.07136842  0.47351532    -0.81230
O272        O  0.14541621  0.14668859  0.40229343    -0.74780
Al273      Al  0.12392495  0.08547806  0.45573436     1.90120
O274        O  0.19401666  0.10300461  0.43133317    -0.73850
O275        O  0.14598734  0.10832941  0.34211094    -0.73700
O276        O  0.19554852  0.06675860  0.37141361    -0.79360
O277        O  0.11269394  0.06357249  0.33927650    -0.77570
O278        O  0.13718729  0.07674729  0.40902594    -1.13700
O279        O  0.07423393  0.05581002  0.39922066    -0.72900
C280        C  0.06434985  0.08370899  0.41497081     0.97820
C281        C  0.19329130  0.08482652  0.46079548     0.94220
Al282      Al  0.16764688  0.10398750  0.38819690     1.55560
O283        O  0.10466937  0.04285509  0.46960903    -0.77520
C284        C  0.12490118  0.09047614  0.32491289     0.98390
C285        C  0.13976382  0.15446853  0.43595405     0.93270
O286        O  0.13732766  0.13134721  0.45989057    -0.82840
O287        O  0.39414649  0.10152914  0.55631784    -0.82300
C288        C  0.31144420  0.19683931  0.62842128     0.97060
O289        O  0.31088478  0.16457924  0.63528923    -0.71410
O290        O  0.30255916  0.13701977  0.57109728    -0.75010
Al291      Al  0.33305080  0.12688508  0.60802478     1.48980
C292        C  0.30705341  0.12582704  0.53880730     0.92310
O293        O  0.36282392  0.18607048  0.52437589    -0.81230
O294        O  0.42533302  0.16742820  0.60939936    -0.74780
Al295      Al  0.37798143  0.14441734  0.54193835     1.90120
O296        O  0.38844037  0.21718217  0.56666219    -0.73850
O297        O  0.37735625  0.16722382  0.66128741    -0.73700
O298        O  0.33833533  0.21049580  0.61631521    -0.79360
O299        O  0.36084481  0.11475479  0.64763946    -0.77570
O300        O  0.36389410  0.15337281  0.58746762    -1.13700
O301        O  0.34753585  0.08352902  0.58185338    -0.72900
C302        C  0.37318805  0.07801549  0.56109792     0.97820
C303        C  0.37478887  0.21424627  0.53458816     0.94220
Al304      Al  0.38136947  0.18840278  0.61189339     1.55560
O305        O  0.33607116  0.12561675  0.52443168    -0.77520
C306        C  0.37199031  0.13614980  0.67073953     0.98390
C307        C  0.43883908  0.15676998  0.57944835     0.93270
O308        O  0.42308151  0.16038733  0.54916004    -0.82840
O309        O  0.10791732  0.38353700  0.56007556    -0.82300
C310        C  0.18985552  0.28327310  0.62657979     0.97060
O311        O  0.19006273  0.31511520  0.63520554    -0.71410
O312        O  0.19873583  0.34653388  0.57270236    -0.75010
Al313      Al  0.16806558  0.35416462  0.61042907     1.48980
C314        C  0.19472088  0.35838926  0.54049096     0.92310
O315        O  0.13839503  0.29952574  0.52178529    -0.81230
O316        O  0.07653534  0.31390244  0.60936693    -0.74780
Al317      Al  0.12371829  0.34100765  0.54271476     1.90120
O318        O  0.11330897  0.26650147  0.56335930    -0.73850
O319        O  0.12436490  0.31031304  0.66075307    -0.73700
O320        O  0.16348780  0.27023929  0.61272889    -0.79360
O321        O  0.13930945  0.36393976  0.65099419    -0.77570
O322        O  0.13768033  0.32907317  0.58770649    -1.13700
O323        O  0.15426599  0.39846579  0.58797204    -0.72900
C324        C  0.12856736  0.40641226  0.56886627     0.97820
C325        C  0.12710415  0.27065724  0.53140407     0.94220
Al326      Al  0.12036525  0.29259714  0.61000071     1.55560
O327        O  0.16578631  0.36036750  0.52642609    -0.77520
C328        C  0.12831417  0.34086816  0.67247533     0.98390
C329        C  0.06299176  0.32625689  0.58035643     0.93270
O330        O  0.07868168  0.32478615  0.54958992    -0.82840
O331        O  0.41855558  0.38015704  0.43361885    -0.82300
C332        C  0.30918893  0.44559514  0.36625374     0.97060
O333        O  0.33863554  0.45775043  0.36687373    -0.71410
O334        O  0.37716287  0.47048980  0.42208794    -0.75010
Al335      Al  0.38121486  0.43866375  0.38127953     1.48980
C336        C  0.38684781  0.46659071  0.45510187     0.92310
O337        O  0.33736885  0.41179553  0.47292498    -0.81230
O338        O  0.35472189  0.33434029  0.40310751    -0.74780
Al339      Al  0.37837920  0.39629266  0.45318677     1.90120
O340        O  0.30714273  0.37959723  0.43396425    -0.73850
O341        O  0.35166824  0.37074653  0.34161541    -0.73700
O342        O  0.30437887  0.41400843  0.37275153    -0.79360
O343        O  0.38627004  0.41412941  0.33554786    -0.77570
O344        O  0.36373427  0.40397958  0.40692081    -1.13700
O345        O  0.42688344  0.42269241  0.39270423    -0.72900
C346        C  0.43658917  0.39519686  0.40937117     0.97820
C347        C  0.30996673  0.39801627  0.46307917     0.94220
Al348      Al  0.33202585  0.37680203  0.38900866     1.55560
O349        O  0.39854483  0.43837019  0.46444145    -0.77520
C350        C  0.37284682  0.38733129  0.32272605     0.98390
C351        C  0.36277077  0.32785201  0.43641078     0.93270
O352        O  0.36406493  0.35150610  0.45959325    -0.82840
C353        C  0.28132503  0.39883184  0.48745020    -0.05960
C354        C  0.24998545  0.40474238  0.47132887    -0.33390
C355        C  0.22118952  0.39167364  0.48810401     0.35860
C356        C  0.22396523  0.37275329  0.52149749    -0.06320
C357        C  0.25533764  0.36942245  0.53886243    -0.33290
C358        C  0.28393998  0.38255428  0.52212343     0.35760
H359        H  0.24821634  0.41698798  0.44416892     0.16130
O360        O  0.19084432  0.39682629  0.47119172    -0.60790
H361        H  0.25807902  0.35549789  0.56490569     0.16150
O362        O  0.31464461  0.37528416  0.53729152    -0.60890
H363        H  0.31906645  0.39435268  0.55493428     0.43140
H364        H  0.18862857  0.37776978  0.45299521     0.43100
C365        C  0.22095765  0.26136696  0.63164268    -0.05960
C366        C  0.21871519  0.22517380  0.63187672    -0.33390
C367        C  0.24758636  0.20408601  0.63312094     0.35860
C368        C  0.28014383  0.21865537  0.63295544    -0.06320
C369        C  0.28236237  0.25486781  0.63345522    -0.33290
C370        C  0.25347171  0.27596794  0.63335542     0.35760
H371        H  0.19433603  0.21297493  0.63057498     0.16130
O372        O  0.24350635  0.16911338  0.63241988    -0.60790
H373        H  0.30676807  0.26708850  0.63322664     0.16150
O374        O  0.25759717  0.31097204  0.63267987    -0.60890
H375        H  0.25845808  0.31794746  0.65928747     0.43140
H376        H  0.24154576  0.16212167  0.65899008     0.43100
C377        C  0.37350912  0.24239841  0.50700149    -0.05960
C378        C  0.34673006  0.24327678  0.48140820    -0.33390
C379        C  0.34489901  0.26877093  0.45385674     0.35860
C380        C  0.37020163  0.29364736  0.45138265    -0.06320
C381        C  0.39819687  0.29115594  0.47507105    -0.33290
C382        C  0.39980798  0.26604149  0.50296861     0.34800
H383        H  0.32647011  0.22479002  0.48363798     0.16130
O384        O  0.31670780  0.27127697  0.43231488    -0.60790
H385        H  0.41765451  0.31061095  0.47390371     0.16150
O386        O  0.42721440  0.26472196  0.52585815    -0.60890
H387        H  0.42213979  0.28090834  0.54650924     0.43140
H388        H  0.32251361  0.25947349  0.40861583     0.43100
C389        C  0.38364105  0.49419082  0.48313126    -0.05960
C390        C  0.38480630  0.02807407  0.47103047    -0.33390
C391        C  0.38119229  0.05499640  0.49620703     0.35860
C392        C  0.37550295  0.04852401  0.53486692    -0.06320
C393        C  0.37357731  0.01439802  0.54711838    -0.33290
C394        C  0.37800791  0.48722261  0.52159336     0.35760
H395        H  0.38903293  0.03390339  0.44174806     0.16130
O396        O  0.38393175  0.08772060  0.48233604    -0.60790
H397        H  0.36941852  0.50881089  0.57643594     0.16150
O398        O  0.37660424  0.45402864  0.53450291    -0.60890
H399        H  0.35237655  0.44861860  0.53655931     0.43140
H400        H  0.36381254  0.09127259  0.46666625     0.43100
C401        C  0.22094457  0.01174526  0.36030099    -0.05960
C402        C  0.25343994  0.02585460  0.35770292    -0.33390
C403        C  0.28228003  0.00490392  0.35808434     0.35860
C404        C  0.27935779  0.46868429  0.36032353    -0.06320
C405        C  0.24681034  0.45454507  0.36081329    -0.33290
C406        C  0.21803355  0.47546896  0.36079154     0.35760
H407        H  0.25671432  0.05348752  0.35679366     0.16130
O408        O  0.31317448  0.02038074  0.35741173    -0.60790
H409        H  0.24345607  0.42694206  0.36262475     0.16150
O410        O  0.18723732  0.45993564  0.36328434    -0.60890
H411        H  0.18008646  0.45652381  0.33707168     0.43140
H412        H  0.31809202  0.02595301  0.38385138     0.43100
C413        C  0.13697885  0.18983287  0.45009279    -0.05960
C414        C  0.10505826  0.20188338  0.46053364    -0.33390
C415        C  0.10142101  0.22798249  0.48734203     0.35860
C416        C  0.12992586  0.24233425  0.50417047    -0.06320
C417        C  0.16184790  0.23164006  0.49229402    -0.33290
C418        C  0.16548597  0.20528129  0.46589722     0.35760
H419        H  0.08284604  0.18943012  0.44971953     0.16130
O420        O  0.06997923  0.23940203  0.49676077    -0.60790
H421        H  0.18402978  0.24289393  0.50463298     0.16150
O422        O  0.19686033  0.19248261  0.45849302    -0.60890
H423        H  0.20385808  0.20347604  0.43468540     0.43140
H424        H  0.06276761  0.22469241  0.51798886     0.43100
C425        C  0.11947329  0.48758475  0.48968979    -0.05960
C426        C  0.09132520  0.47746290  0.51064200    -0.33390
C427        C  0.09425750  0.45302826  0.53934324     0.35860
C428        C  0.12597077  0.43958754  0.54874898    -0.06320
C429        C  0.15443245  0.45185903  0.52958762    -0.33290
C430        C  0.15129216  0.47521143  0.49987540     0.35760
H431        H  0.06684366  0.48774671  0.50396002     0.16130
O432        O  0.06592564  0.44185445  0.55763141    -0.60790
H433        H  0.17895209  0.44144810  0.53583788     0.16150
O434        O  0.17955035  0.98636543  0.48146673    -0.60890
H435        H  0.18233699  0.97049643  0.46001569     0.43140
H436        H  0.05510363  0.42537193  0.54034723     0.43100
C437        C  0.22419633  0.08353027  0.48168299    -0.05960
C438        C  0.22244177  0.08681449  0.52034513    -0.33390
C439        C  0.24964267  0.10004504  0.53959832     0.35860
C440        C  0.27898111  0.10972805  0.51976268    -0.06320
C441        C  0.28202397  0.10200495  0.48183827    -0.33290
C442        C  0.25484543  0.08875154  0.46269925     0.35760
H443        H  0.19909977  0.08226167  0.53521165     0.16130
O444        O  0.24705853  0.10380134  0.57760682    -0.60790
H445        H  0.30487346  0.10767589  0.46655092     0.16150
O446        O  0.25774863  0.08274228  0.42503652    -0.60890
H447        H  0.25898756  0.10576500  0.41309986     0.43140
H448        H  0.23145072  0.12332598  0.58144067     0.43100
C449        C  0.38042294  0.37558361  0.28438667    -0.05960
C450        C  0.37905730  0.34026788  0.27622836    -0.33390
C451        C  0.37959911  0.32868059  0.23923913     0.35860
C452        C  0.38059516  0.35262380  0.20973812    -0.06320
C453        C  0.38400690  0.38776361  0.21789192    -0.33290
C454        C  0.38447399  0.39928945  0.25491207     0.35760
H455        H  0.37605910  0.32166890  0.29858589     0.16130
O456        O  0.37564253  0.29424796  0.23226576    -0.60790
H457        H  0.38482032  0.40647717  0.19543076     0.16150
O458        O  0.38553300  0.43396351  0.26175044    -0.60890
H459        H  0.40970066  0.43959178  0.26372519     0.43140
H460        H  0.39871685  0.28483096  0.23117226     0.43100
C461        C  0.12543790  0.37282194  0.78710222    -0.05960
C462        C  0.14086568  0.34165090  0.77660296    -0.33390
C463        C  0.14026189  0.33011566  0.73966334     0.35860
C464        C  0.12363835  0.34941937  0.71227950    -0.06320
C465        C  0.10708362  0.37986451  0.72269063    -0.33290
C466        C  0.10769703  0.39152089  0.75983845     0.35760
H467        H  0.15492333  0.32676381  0.79674540     0.16130
O468        O  0.15794365  0.30111341  0.73016704    -0.60790
H469        H  0.09435624  0.39508323  0.70173878     0.16150
O470        O  0.09089843  0.42108918  0.76909723    -0.60890
H471        H  0.10635585  0.44010323  0.76228783     0.43140
H472        H  0.18048921  0.30945154  0.72256423     0.43100
C473        C  0.28326700  0.34258397  0.00549917    -0.05960
C474        C  0.25336011  0.32508317  0.01297369    -0.33390
C475        C  0.22311049  0.33840899  0.00026580     0.35860
C476        C  0.22313717  0.36950427  0.98016780    -0.06320
C477        C  0.25330603  0.38650142  0.97227841    -0.33290
C478        C  0.28332694  0.37307769  0.98457677     0.35760
H479        H  0.25340537  0.30207573  0.03009797     0.16130
O480        O  0.19405196  0.32033541  0.00630576    -0.60790
H481        H  0.25354218  0.41023081  0.95631223     0.16150
O482        O  0.31225096  0.39162147  0.97917095    -0.60890
H483        H  0.32353929  0.38070465  0.95748305     0.43140
H484        H  0.18557748  0.32830459  0.03090460     0.43100
C485        C  0.37427688  0.12485237  0.70982578    -0.05960
C486        C  0.34553004  0.11013777  0.72592140    -0.33390
C487        C  0.34575184  0.09825162  0.76262255     0.35860
C488        C  0.37527501  0.10003854  0.78364656    -0.06320
C489        C  0.40434753  0.11441103  0.76766880    -0.33290
C490        C  0.40394821  0.12689557  0.73074171     0.35760
H491        H  0.32250566  0.10846864  0.71008934     0.16130
O492        O  0.31674220  0.08540909  0.77803869    -0.60790
H493        H  0.42702114  0.11649704  0.78398140     0.16150
O494        O  0.43272546  0.13987055  0.71502895    -0.60890
H495        H  0.43199447  0.16492126  0.72008819     0.43140
H496        H  0.30512897  0.10558368  0.78903481     0.43100
C497        C  0.22298125  0.46888186  0.86356526    -0.05960
C498        C  0.22087415  0.00464018  0.85742895    -0.33390
C499        C  0.24961105  0.02603742  0.85796537     0.35860
C500        C  0.28174891  0.01226877  0.86553247    -0.06320
C501        C  0.28387772  0.47632714  0.87076885    -0.33290
C502        C  0.25525288  0.45487213  0.86947670     0.35760
H503        H  0.19661077  0.01632160  0.85277609     0.16130
O504        O  0.24568446  0.06059106  0.85181265    -0.60790
H505        H  0.30789775  0.46465549  0.87675439     0.16150
O506        O  0.25902327  0.42043156  0.87654729    -0.60890
H507        H  0.26376457  0.40989029  0.85187681     0.43140
H508        H  0.23716685  0.06989061  0.87579536     0.43100
C509        C  0.37328212  0.43861532  0.04367350    -0.05960
C510        C  0.34925849  0.46475786  0.04588377    -0.33390
C511        C  0.35042803  0.99265898  0.02088980     0.35860
C512        C  0.37568552  0.49430499  0.99295034    -0.06320
C513        C  0.40079828  0.46932208  0.99246238    -0.33290
C514        C  0.39981366  0.44175524  0.01745664     0.35760
H515        H  0.32815460  0.46221154  0.06488390     0.16130
O516        O  0.32524292  0.01663725  0.02206795    -0.60790
H517        H  0.42095071  0.47071301  0.97207532     0.16150
O518        O  0.42409406  0.41683929  0.01484002    -0.60890
H519        H  0.41870055  0.40350308  0.99205287     0.43140
H520        H  0.33221572  0.03345599  0.04131423     0.43100
C521        C  0.38276114  0.23630083  0.00919339    -0.05960
C522        C  0.41213038  0.22010061  0.99704024    -0.33390
C523        C  0.41150900  0.19674972  0.96731975     0.35860
C524        C  0.38101926  0.18932507  0.94880366    -0.06320
C525        C  0.35200618  0.20728845  0.95968628    -0.33290
C526        C  0.35279950  0.23075537  0.98947953     0.35760
H527        H  0.43562987  0.22531293  0.01096770     0.16130
O528        O  0.44058690  0.17985051  0.95808772    -0.60790
H529        H  0.32821348  0.20175496  0.94655707     0.16150
O530        O  0.32404696  0.24780766  0.99953795    -0.60890
H531        H  0.32077885  0.26554106  0.97994590     0.43140
H532        H  0.44936438  0.19188132  0.93563175     0.43100
C533        C  0.11844524  0.12397730  0.21181289    -0.05960
C534        C  0.11986855  0.08863030  0.22003695    -0.33390
C535        C  0.11873121  0.07694421  0.25704719     0.35860
C536        C  0.11651865  0.10078963  0.28646510    -0.06320
C537        C  0.11263161  0.13586363  0.27814401    -0.33290
C538        C  0.11306627  0.14750030  0.24111667     0.35760
H539        H  0.12372533  0.07013852  0.19780497     0.16130
O540        O  0.12269157  0.04251372  0.26422081    -0.60790
H541        H  0.11109022  0.15451047  0.30056002     0.16150
O542        O  0.11179443  0.18218374  0.23426939    -0.60890
H543        H  0.08766146  0.18742614  0.23107584     0.43140
H544        H  0.14721237  0.03905179  0.26666551     0.43100
C545        C  0.22118930  0.21973132  0.14030579    -0.05960
C546        C  0.21675590  0.25491853  0.13245046    -0.33390
C547        C  0.24409059  0.27765761  0.13050809     0.35860
C548        C  0.27704798  0.26559911  0.13652065    -0.06320
C549        C  0.28119945  0.23094709  0.14710128    -0.33290
C550        C  0.25373543  0.20814390  0.14910463     0.35760
H551        H  0.19207828  0.26473689  0.12586222     0.16130
O552        O  0.23820223  0.31145497  0.12166120    -0.60790
H553        H  0.30602083  0.22110715  0.15292822     0.16150
O554        O  0.25879599  0.17474901  0.16032040    -0.60890
H555        H  0.27566759  0.16498266  0.14289552     0.43140
H556        H  0.23524188  0.31189796  0.09419963     0.43100
C557        C  0.13152026  0.49572705  0.98526673    -0.05960
C558        C  0.16391215  0.00834015  0.99154211    -0.33390
C559        C  0.16998712  0.03175495  0.02036466     0.35860
C560        C  0.14360396  0.04248995  0.04393853    -0.06320
C561        C  0.11154000  0.02846421  0.03868744    -0.33290
C562        C  0.10544614  0.50507455  0.00975430     0.35760
H563        H  0.18453220  0.50009738  0.97384634     0.16130
O564        O  0.20118084  0.04634454  0.02326931    -0.60790
H565        H  0.09068225  0.03730677  0.05541101     0.16150
O566        O  0.07406498  0.49115016  0.00591223    -0.60890
H567        H  0.06249943  0.50622562  0.98772518     0.43140
H568        H  0.21250096  0.03329167  0.04337875     0.43100
C569        C  0.12519229  0.29954008  0.96183509    -0.05960
C570        C  0.13567340  0.26654906  0.95141379    -0.33390
C571        C  0.13298439  0.23896268  0.97677247     0.35860
C572        C  0.12115078  0.24458131  0.01367258    -0.06320
C573        C  0.11164576  0.27752310  0.02429438    -0.33290
C574        C  0.11282277  0.30461669  0.99879836     0.35760
H575        H  0.14558824  0.26208769  0.92360673     0.16130
O576        O  0.14337546  0.20692851  0.96572460    -0.60790
H577        H  0.10271069  0.28227808  0.05247358     0.16150
O578        O  0.10340790  0.33648678  0.01130400    -0.60890
H579        H  0.07856486  0.33602633  0.01206340     0.43140
H580        H  0.12363816  0.19643888  0.95347422     0.43100
C581        C  0.22850154  0.15256401  0.01699004    -0.05960
C582        C  0.22679199  0.15091753  0.97817974    -0.33390
C583        C  0.25435850  0.13936871  0.95791692     0.35860
C584        C  0.28384381  0.12967894  0.97691571    -0.06320
C585        C  0.28704686  0.13678425  0.01493771    -0.33290
C586        C  0.25945551  0.14827761  0.03511975     0.35760
H587        H  0.20328494  0.15518122  0.96388049     0.16130
O588        O  0.25200464  0.13699587  0.91978178    -0.60790
H589        H  0.31020007  0.13144408  0.02950991     0.16150
O590        O  0.26224883  0.15316701  0.07291455    -0.60890
H591        H  0.26410741  0.12980100  0.08389605     0.43140
H592        H  0.23635170  0.11768843  0.91516606     0.43100
C593        C  0.97330701  0.38949777  0.57926041    -0.05960
C594        C  0.99010886  0.38318836  0.61309604    -0.33390
C595        C  0.01839517  0.36142387  0.61448761     0.35860
C596        C  0.03036697  0.34513160  0.58173756    -0.06320
C597        C  0.01341048  0.35128315  0.54815960    -0.33290
C598        C  0.98554364  0.37306938  0.54660546     0.35760
H599        H  0.98125446  0.39505400  0.63866600     0.16130
O600        O  0.03502351  0.35769042  0.64765113    -0.60790
H601        H  0.02213597  0.33948551  0.52248183     0.16150
O602        O  0.97008309  0.37732588  0.51280499    -0.60890
H603        H  0.98157520  0.39719010  0.50093432     0.43140
H604        H  0.02409981  0.33787687  0.66025695     0.43100
C605        C  0.53345842  0.34960374  0.40359530    -0.05960
C606        C  0.50502762  0.32866576  0.40285130    -0.33390
C607        C  0.47314384  0.34350117  0.40181584     0.35860
C608        C  0.46954660  0.37972506  0.40160567    -0.06320
C609        C  0.49804119  0.40044860  0.39846503    -0.33290
C610        C  0.52991840  0.38559474  0.39938311     0.35760
H611        H  0.50743606  0.30099925  0.40532989     0.16130
O612        O  0.44558167  0.32239233  0.40291673    -0.60790
H613        H  0.49566454  0.42819877  0.39765525     0.16150
O614        O  0.55751635  0.40663855  0.39790344    -0.60890
H615        H  0.56705537  0.40348301  0.37250045     0.43140
H616        H  0.43694341  0.32210733  0.37700408     0.43100
C617        C  0.72546390  0.33565993  0.48119581    -0.05960
C618        C  0.75560363  0.33907441  0.46100076    -0.33390
C619        C  0.78436395  0.35091649  0.47844177     0.35860
C620        C  0.78302865  0.35874177  0.51663377    -0.06320
C621        C  0.75393487  0.35095331  0.53753842    -0.33290
C622        C  0.72518131  0.33935504  0.52001727     0.35760
H623        H  0.75602530  0.33557421  0.43099475     0.16130
O624        O  0.81279316  0.35655899  0.45755739    -0.60790
H625        H  0.75288927  0.35526198  0.56741416     0.16150
O626        O  0.69614448  0.33580394  0.54038190    -0.60890
H627        H  0.69481234  0.31098166  0.54663120     0.43140
H628        H  0.81097327  0.38064600  0.44862784     0.43100
C629        C  0.47139400  0.13748652  0.57966925    -0.05960
C630        C  0.49162879  0.13676669  0.61176856    -0.33390
C631        C  0.52113208  0.11683312  0.61294166     0.35860
C632        C  0.53064161  0.09646051  0.58199626    -0.06320
C633        C  0.51025268  0.09683971  0.55025381    -0.33290
C634        C  0.48109898  0.11684903  0.54883710     0.35760
H635        H  0.48475936  0.15196295  0.63596189     0.16130
O636        O  0.54104010  0.11845706  0.64399112    -0.60790
H637        H  0.51716926  0.08171544  0.52600331     0.16150
O638        O  0.46176613  0.11498185  0.51736325    -0.60890
H639        H  0.47136548  0.13229283  0.49996029     0.43140
H640        H  0.55809801  0.13629200  0.63818582     0.43100
C641        C  0.72229701  0.01278936  0.62846917    -0.05960
C642        C  0.71964188  0.47668970  0.62543580    -0.33390
C643        C  0.74818147  0.45506344  0.62626988     0.35860
C644        C  0.78077802  0.46902065  0.63000376    -0.06320
C645        C  0.78337840  0.50503171  0.63378945    -0.33290
C646        C  0.75484318  0.02661521  0.63346296     0.35760
H647        H  0.69526041  0.46503075  0.62148632     0.16130
O648        O  0.74384952  0.42033408  0.62177524    -0.60790
H649        H  0.80788743  0.51676740  0.63634790     0.16150
O650        O  0.75947490  0.06146913  0.63605842    -0.60890
H651        H  0.75884181  0.06651369  0.66319719     0.43140
H652        H  0.74347571  0.41668284  0.59437039     0.43100
C653        C  0.63088529  0.44117400  0.45083666    -0.05960
C654        C  0.65602451  0.46629018  0.45018791    -0.33390
C655        C  0.65489901  0.49397469  0.47529197     0.35860
C656        C  0.62830454  0.49671210  0.50148340    -0.06320
C657        C  0.60221420  0.47272621  0.50044075    -0.33290
C658        C  0.60331568  0.44520807  0.47538835     0.35760
H659        H  0.67785344  0.46298749  0.43239580     0.16130
O660        O  0.68088272  0.01710381  0.47537747    -0.60790
H661        H  0.58117060  0.47493470  0.51956989     0.16150
O662        O  0.57794009  0.42135635  0.47611550    -0.60890
H663        H  0.58214357  0.40693311  0.49847750     0.43140
H664        H  0.69663041  0.50850181  0.49457739     0.43100
C665        C  0.62213794  0.23903837  0.48646427    -0.05960
C666        C  0.59382092  0.22944366  0.50744425    -0.33390
C667        C  0.59645973  0.20578901  0.53690135     0.35860
C668        C  0.62805300  0.19252277  0.54701540    -0.06320
C669        C  0.65667904  0.20417527  0.52767035    -0.33290
C670        C  0.65384765  0.22692659  0.49735295     0.35760
H671        H  0.56941921  0.23968546  0.50033562     0.16130
O672        O  0.56794591  0.19520439  0.55525951    -0.60790
H673        H  0.68111289  0.19385061  0.53440790     0.16150
O674        O  0.68218834  0.23706922  0.47842694    -0.60890
H675        H  0.69114595  0.25676352  0.49283588     0.43140
H676        H  0.55713891  0.17837969  0.53835146     0.43100
C677        C  0.96819902  0.13090020  0.40364738    -0.05960
C678        C  0.97073646  0.09477821  0.40535427    -0.33390
C679        C  0.00203843  0.07857217  0.40649213     0.35860
C680        C  0.03125861  0.09862289  0.40692865    -0.06320
C681        C  0.02875005  0.13457619  0.40304509    -0.33290
C682        C  0.99750277  0.15072433  0.40095294     0.35760
H683        H  0.94828391  0.07913278  0.40720975     0.16130
O684        O  0.00365737  0.04353417  0.41046408    -0.60790
H685        H  0.05118041  0.15031921  0.40287756     0.16150
O686        O  0.99592780  0.18593646  0.39971411    -0.60890
H687        H  0.99621840  0.19183439  0.37275673     0.43140
H688        H  0.00423752  0.03442548  0.38461392     0.43100
C689        C  0.78080229  0.22328615  0.35559529    -0.05960
C690        C  0.78505284  0.25921615  0.35651274    -0.33390
C691        C  0.75735160  0.28162387  0.35686102     0.35860
C692        C  0.72426204  0.26842433  0.35676020    -0.06320
C693        C  0.72014391  0.23263062  0.35330752    -0.33290
C694        C  0.74777787  0.21028782  0.35251049     0.35760
H695        H  0.80996100  0.27010794  0.35867092     0.16130
O696        O  0.76312722  0.31630544  0.35928338    -0.60790
H697        H  0.69522887  0.22156513  0.35272709     0.16150
O698        O  0.74187283  0.17558701  0.35060944    -0.60890
H699        H  0.74367586  0.16981808  0.32370120     0.43140
H700        H  0.76355938  0.32461493  0.33308525     0.43100
C701        C  0.85416558  0.04989370  0.46030499    -0.05960
C702        C  0.84410734  0.05020674  0.49817121    -0.33390
C703        C  0.85185254  0.02317651  0.52209500     0.35860
C704        C  0.86863169  0.49432557  0.50813312    -0.06320
C705        C  0.87638998  0.49250797  0.46967673    -0.33290
C706        C  0.86959348  0.02033871  0.44577575     0.35760
H707        H  0.83163305  0.07254100  0.50987252     0.16130
O708        O  0.84205398  0.02480269  0.55885882    -0.60790
H709        H  0.88864174  0.46987160  0.45846077     0.16150
O710        O  0.88020870  0.51931753  0.40931048    -0.60890
H711        H  0.86065448  0.51080051  0.39507639     0.43140
H712        H  0.86050366  0.03693274  0.57180108     0.43100
C713        C  0.88587058  0.24883735  0.48015342    -0.05960
C714        C  0.86955751  0.24200939  0.51447970    -0.33390
C715        C  0.86708266  0.26733900  0.54229740     0.35860
C716        C  0.88225262  0.29949095  0.53653119    -0.06320
C717        C  0.89930864  0.30562604  0.50234309    -0.33290
C718        C  0.90046481  0.28098514  0.47412417     0.35760
H719        H  0.85821875  0.21710627  0.51950080     0.16130
O720        O  0.84975208  0.26045641  0.57464173    -0.60790
H721        H  0.91097095  0.33024128  0.49661834     0.16150
O722        O  0.91690758  0.28818879  0.44127084    -0.60890
H723        H  0.89977956  0.29884508  0.42497287     0.43140
H724        H  0.86682666  0.25196212  0.59242093     0.43100
C725        C  0.77896619  0.16045983  0.48512898    -0.05960
C726        C  0.74765272  0.16218119  0.46772214    -0.33390
C727        C  0.71982279  0.14692202  0.48436304     0.35860
C728        C  0.72333109  0.13053881  0.51921140    -0.06320
C729        C  0.75387295  0.13305711  0.53849062    -0.33290
C730        C  0.78159152  0.14824320  0.52176929     0.35760
H731        H  0.74565119  0.17184858  0.43938591     0.16130
O732        O  0.68994361  0.14690919  0.46560894    -0.60790
H733        H  0.75684628  0.12195001  0.56605054     0.16150
O734        O  0.81205288  0.14632801  0.53922938    -0.60890
H735        H  0.81518768  0.16914211  0.55104253     0.43140
H736        H  0.69051086  0.12599513  0.44979585     0.43100
C737        C  0.53003787  0.38135244  0.09602370    -0.05960
C738        C  0.50099047  0.40101330  0.09952232    -0.33390
C739        C  0.46966588  0.38469855  0.09997397     0.35860
C740        C  0.46764261  0.34851585  0.09649065    -0.06320
C741        C  0.49678396  0.32881657  0.09818455    -0.33290
C742        C  0.52796153  0.34509815  0.09858063     0.35760
H743        H  0.50240653  0.42884372  0.09939139     0.16130
O744        O  0.44095746  0.40399236  0.10350797    -0.60790
H745        H  0.49549571  0.30101250  0.09674209     0.16150
O746        O  0.55639989  0.32531669  0.09941409    -0.60890
H747        H  0.56504076  0.32748938  0.12521813     0.43140
H748        H  0.44199730  0.42172039  0.08362153     0.43100
C749        C  0.61772280  0.35610270  0.28606964    -0.05960
C750        C  0.61601070  0.33135872  0.25772495    -0.33390
C751        C  0.61637591  0.34135784  0.22015146     0.35860
C752        C  0.61736428  0.37655339  0.21061049    -0.06320
C753        C  0.61556699  0.40128085  0.23897458    -0.33290
C754        C  0.61606333  0.39127655  0.27654287     0.35760
H755        H  0.61707136  0.30422169  0.26457037     0.16130
O756        O  0.61674532  0.31657521  0.19289317    -0.60790
H757        H  0.61629552  0.42841941  0.23206929     0.16150
O758        O  0.61690242  0.41609789  0.30369509    -0.60890
H759        H  0.59307867  0.42088528  0.30974745     0.43140
H760        H  0.64027822  0.30843116  0.19154790     0.43100
C761        C  0.97303539  0.34638515  0.91107984    -0.05960
C762        C  0.97867456  0.37167385  0.88353231    -0.33390
C763        C  0.00731425  0.39291215  0.88455817     0.35860
C764        C  0.03070896  0.38931648  0.91367838    -0.06320
C765        C  0.02489717  0.36380674  0.94096976    -0.33290
C766        C  0.99669264  0.34240875  0.93965794     0.35760
H767        H  0.96017278  0.37586881  0.86196293     0.16130
O768        O  0.01128860  0.41814337  0.85809645    -0.60790
H769        H  0.04264343  0.35992982  0.96330121     0.16150
O770        O  0.99236892  0.31772934  0.96668991    -0.60890
H771        H  0.00219815  0.29647370  0.95595689     0.43140
H772        H  0.02192459  0.40655479  0.83641118     0.43100
C773        C  0.88260982  0.35601008  0.78383450    -0.05960
C774        C  0.88247210  0.33128720  0.75541329    -0.33390
C775        C  0.88200496  0.34120478  0.71780484     0.35860
C776        C  0.88209534  0.37649585  0.70799510    -0.06320
C777        C  0.88552753  0.40103527  0.73636562    -0.33290
C778        C  0.88559893  0.39112177  0.77397478     0.35760
H779        H  0.88070923  0.30419025  0.76226938     0.16130
O780        O  0.88076620  0.31611251  0.69093341    -0.60790
H781        H  0.88630831  0.42819560  0.72960191     0.16150
O782        O  0.88799792  0.41608096  0.80089515    -0.60890
H783        H  0.86529473  0.42634859  0.80277653     0.43140
H784        H  0.85701367  0.30858775  0.69026455     0.43100
C785        C  0.77851353  0.36572556  0.97496742    -0.05960
C786        C  0.76333297  0.33912637  0.99458305    -0.33390
C787        C  0.73175807  0.34388078  0.00936670     0.35860
C788        C  0.71610525  0.37628382  0.00619508    -0.06320
C789        C  0.73045378  0.40240732  0.98476141    -0.33290
C790        C  0.76172883  0.39698261  0.96836837     0.35760
H791        H  0.77547657  0.31428435  0.99720016     0.16130
O792        O  0.71650134  0.31691287  0.02751773    -0.60790
H793        H  0.71800560  0.42701050  0.98167397     0.16150
O794        O  0.77512839  0.42131921  0.94472343    -0.60890
H795        H  0.77633129  0.44294127  0.95933902     0.43140
H796        H  0.70168720  0.30629406  0.00861104     0.43100
C797        C  0.53434795  0.13246555  0.91627471    -0.05960
C798        C  0.51371596  0.13346714  0.88450419    -0.33390
C799        C  0.48412281  0.11370977  0.88265140     0.35860
C800        C  0.47486168  0.09187417  0.91255910    -0.06320
C801        C  0.49568797  0.09045234  0.94390686    -0.33290
C802        C  0.52501177  0.11019401  0.94596223     0.35760
H803        H  0.52030995  0.14992219  0.86114342     0.16130
O804        O  0.46383001  0.11699804  0.85207393    -0.60790
H805        H  0.48895166  0.07415147  0.96736854     0.16150
O806        O  0.54483054  0.10653561  0.97687776    -0.60890
H807        H  0.53550581  0.12278866  0.99555021     0.43140
H808        H  0.44698012  0.13462250  0.85912740     0.43100
C809        C  0.62628822  0.12434083  0.78562636    -0.05960
C810        C  0.63689758  0.09098140  0.77553376    -0.33390
C811        C  0.63687743  0.08014143  0.73838012     0.35860
C812        C  0.62561153  0.10242522  0.71025956    -0.06320
C813        C  0.61330707  0.13506513  0.72021832    -0.33290
C814        C  0.61342655  0.14605385  0.75759104     0.35760
H815        H  0.64691065  0.07352661  0.79626661     0.16130
O816        O  0.65011496  0.04856679  0.72963830    -0.60790
H817        H  0.60450566  0.15249698  0.69876822     0.16150
O818        O  0.60143828  0.17814312  0.76617048    -0.60890
H819        H  0.62042580  0.19404709  0.76135625     0.43140
H820        H  0.67412724  0.05293183  0.72400355     0.43100
C821        C  0.72332739  0.22028414  0.86320364    -0.05960
C822        C  0.72069026  0.25647549  0.86355984    -0.33390
C823        C  0.74936510  0.27798175  0.86317939     0.35860
C824        C  0.78207781  0.26380057  0.86326082    -0.06320
C825        C  0.78469550  0.22763065  0.86257595    -0.33290
C826        C  0.75605443  0.20614794  0.86213115     0.35760
H827        H  0.69614834  0.26832786  0.86481141     0.16130
O828        O  0.74492045  0.31289569  0.86512366    -0.60790
H829        H  0.80923378  0.21573707  0.86301587     0.16150
O830        O  0.76057792  0.17120524  0.86298865    -0.60890
H831        H  0.76252581  0.16421854  0.83644017     0.43140
H832        H  0.74292932  0.32061396  0.83881974     0.43100
C833        C  0.63385387  0.04492944  0.95608298    -0.05960
C834        C  0.62960600  0.05242974  0.99434364    -0.33390
C835        C  0.62480025  0.02669490  0.02083627     0.35860
C836        C  0.62264568  0.49237010  0.00940706    -0.06320
C837        C  0.62683205  0.48450835  0.97103785    -0.33290
C838        C  0.63258935  0.01059690  0.94442822     0.35760
H839        H  0.63007332  0.07869042  0.00418547     0.16130
O840        O  0.62100177  0.03563703  0.05767481    -0.60790
H841        H  0.62580263  0.45805269  0.96166569     0.16150
O842        O  0.63597431  0.00237544  0.90738081    -0.60890
H843        H  0.61295499  0.50343339  0.89714852     0.43140
H844        H  0.64413014  0.03820482  0.06729077     0.43100
C845        C  0.62488028  0.28794957  0.04894702    -0.05960
C846        C  0.65135941  0.26441361  0.04854556    -0.33390
C847        C  0.65307332  0.23888481  0.02093313     0.35860
C848        C  0.62788489  0.23653762  0.99327821    -0.06320
C849        C  0.60016902  0.25833703  0.99558352    -0.33290
C850        C  0.59826574  0.28349010  0.02338766     0.35760
H851        H  0.67239433  0.26792407  0.06716183     0.16130
O852        O  0.68045843  0.21756909  0.02004419    -0.60790
H853        H  0.58007000  0.25619771  0.97549644     0.16150
O854        O  0.57197121  0.30621915  0.02284517    -0.60890
H855        H  0.55238804  0.29307151  0.03236416     0.43140
H856        H  0.69659746  0.22880483  0.00272086     0.43100
C857        C  0.97178091  0.09870290  0.09694207    -0.05960
C858        C  0.00035814  0.07815930  0.10010368    -0.33390
C859        C  0.03217490  0.09331405  0.09882960     0.35860
C860        C  0.03545484  0.12917334  0.09370255    -0.06320
C861        C  0.00693967  0.14992160  0.09470771    -0.33290
C862        C  0.97519526  0.13494056  0.09647076     0.35760
H863        H  0.99811598  0.05040237  0.10117038     0.16130
O864        O  0.05996897  0.07280817  0.10151491    -0.60790
H865        H  0.00918050  0.17758914  0.09194144     0.16150
O866        O  0.94754627  0.15588929  0.09518904    -0.60890
H867        H  0.93856480  0.15622337  0.12107749     0.43140
H868        H  0.06802331  0.07578324  0.12746446     0.43100
C869        C  0.87087628  0.10737950  0.20748930    -0.05960
C870        C  0.89313342  0.09162021  0.23275120    -0.33390
C871        C  0.89463034  0.10235262  0.27024112     0.35860
C872        C  0.87424805  0.12953996  0.28262496    -0.06320
C873        C  0.85301951  0.14599497  0.25741606    -0.33290
C874        C  0.85111151  0.13529203  0.22032699     0.35760
H875        H  0.90870848  0.07034597  0.22376012     0.16130
O876        O  0.91588328  0.08610395  0.29449265    -0.60790
H877        H  0.83680465  0.16661523  0.26694469     0.16150
O878        O  0.82860671  0.15151129  0.19746603    -0.60890
H879        H  0.84116870  0.17097779  0.18617677     0.43140
H880        H  0.90232003  0.06754083  0.30613874     0.43100
C881        C  0.72147396  0.46515883  0.12898131    -0.05960
C882        C  0.75432014  0.45181060  0.12858039    -0.33390
C883        C  0.78267321  0.47356408  0.12770756     0.35860
C884        C  0.77890900  0.00976251  0.12667076    -0.06320
C885        C  0.74612812  0.02307707  0.12804268    -0.33290
C886        C  0.71784484  0.00142759  0.12947295     0.35760
H887        H  0.75817381  0.42424472  0.12790990     0.16130
O888        O  0.81387970  0.45892351  0.12567489    -0.60790
H889        H  0.74221229  0.05063772  0.12725030     0.16150
O890        O  0.68669987  0.01631345  0.12942963    -0.60890
H891        H  0.68091429  0.01970024  0.15614836     0.43140
H892        H  0.82070537  0.45540867  0.15199019     0.43100
C893        C  0.87438438  0.44004468  0.95033194    -0.05960
C894        C  0.85121473  0.44299972  0.97984622    -0.33390
C895        C  0.85668403  0.46546093  0.00967524     0.35860
C896        C  0.88593391  0.48566372  0.01059608    -0.06320
C897        C  0.90870113  0.48364114  0.98042444    -0.33290
C898        C  0.90346643  0.46047218  0.95094756     0.35760
H899        H  0.82987606  0.42601055  0.98131267     0.16130
O900        O  0.83331240  0.46721111  0.03788547    -0.60790
H901        H  0.93101080  0.99954233  0.98010284     0.16150
O902        O  0.92716430  0.45746819  0.92322235    -0.60890
H903        H  0.94377480  0.44074414  0.93286753     0.43140
H904        H  0.81809488  0.48625993  0.03076450     0.43100
C905        C  0.87225176  0.18754714  0.04029165    -0.05960
C906        C  0.90057055  0.19217175  0.01707152    -0.33390
C907        C  0.90260578  0.21952892  0.99175541     0.35860
C908        C  0.87626012  0.24332646  0.98948174    -0.06320
C909        C  0.84914190  0.24041603  0.01482052    -0.33290
C910        C  0.84680098  0.21248870  0.03975613     0.35760
H911        H  0.92035653  0.17306665  0.01687093     0.16130
O912        O  0.93015004  0.22227699  0.96882484    -0.60790
H913        H  0.82887768  0.25894226  0.01401024     0.16150
O914        O  0.81856315  0.20855853  0.06138397    -0.60890
H915        H  0.80285718  0.19495098  0.04591697     0.43140
H916        H  0.94541141  0.23846768  0.98170858     0.43100
C917        C  0.79203336  0.08545605  0.99393670    -0.05960
C918        C  0.76216394  0.06822171  0.00224999    -0.33390
C919        C  0.73168251  0.08212864  0.99121161     0.35860
C920        C  0.73126969  0.11336033  0.97140112    -0.06320
C921        C  0.76150490  0.12939093  0.96130428    -0.33290
C922        C  0.79182809  0.11546643  0.97220167     0.35760
H923        H  0.76231849  0.04573269  0.02021439     0.16130
O924        O  0.70267413  0.06484923  0.99952023    -0.60790
H925        H  0.76156157  0.15314395  0.94538087     0.16150
O926        O  0.82073943  0.13381594  0.96595295    -0.60890
H927        H  0.83169707  0.12247867  0.94431681     0.43140
H928        H  0.69688274  0.07173634  0.02542715     0.43100
O929        O  0.92298332  0.59858331  0.06234819    -0.82300
C930        C  0.80822613  0.53373904  0.12106846     0.97060
O931        O  0.83794416  0.52334467  0.12576348    -0.71410
O932        O  0.87843559  0.50903857  0.07221161    -0.75010
Al933      Al  0.88125411  0.54186362  0.11245196     1.48980
C934        C  0.89052822  0.51211012  0.03989647     0.92310
O935        O  0.84553201  0.56864069  0.01454097    -0.81230
O936        O  0.85470525  0.64545138  0.08701409    -0.74780
Al937      Al  0.88471862  0.58307150  0.03933137     1.90120
O938        O  0.81214364  0.60045511  0.05076200    -0.73850
O939        O  0.84554194  0.60755661  0.14784711    -0.73700
O940        O  0.80302745  0.56421813  0.11028911    -0.79360
O941        O  0.88411903  0.56868174  0.15729846    -0.77570
O942        O  0.86567240  0.57582614  0.08409646    -1.13700
O943        O  0.92804591  0.55614321  0.10347324    -0.72900
C944        C  0.93921244  0.58342296  0.08758230     0.97820
C945        C  0.81784162  0.58338830  0.02131967     0.94220
Al946      Al  0.83165238  0.60222689  0.09813075     1.55560
O947        O  0.90455692  0.53963770  0.03138738    -0.77520
C948        C  0.86694732  0.59387232  0.16877184     0.98390
C949        C  0.86620642  0.65247141  0.05486112     0.93270
O950        O  0.87237352  0.62875617  0.03245478    -0.82840
O951        O  0.61386467  0.59727553  0.93599541    -0.82300
C952        C  0.69239435  0.69783057  0.86760509     0.97060
O953        O  0.69317886  0.66601903  0.85885253    -0.71410
O954        O  0.70364425  0.63774755  0.92204074    -0.75010
Al955      Al  0.67312096  0.62690119  0.88579661     1.48980
C956        C  0.70075532  0.62605794  0.95440929     0.92310
O957        O  0.64196855  0.68129906  0.97345508    -0.81230
O958        O  0.57983197  0.66431958  0.88774693    -0.74780
Al959      Al  0.62866283  0.63967653  0.95338296     1.90120
O960        O  0.61577315  0.71320730  0.93211704    -0.73850
O961        O  0.62702118  0.66706422  0.83495600    -0.73700
O962        O  0.66560219  0.71029128  0.88133899    -0.79360
O963        O  0.64451306  0.61474233  0.84704879    -0.77570
O964        O  0.64190486  0.65141471  0.90820328    -1.13700
O965        O  0.66133773  0.58210016  0.91074954    -0.72900
C966        C  0.63550158  0.57470402  0.93040003     0.97820
C967        C  0.62901011  0.70942171  0.96435511     0.94220
Al968      Al  0.62316284  0.68661796  0.88549164     1.55560
O969        O  0.67212146  0.62206251  0.96936559    -0.77520
C970        C  0.63206804  0.63609588  0.82463174     0.98390
C971        C  0.56683424  0.65187029  0.91720040     0.93270
O972        O  0.58288189  0.65398399  0.94747080    -0.82840
O973        O  0.89419694  0.88584172  0.93517265    -0.82300
C974        C  0.81315509  0.78595480  0.86758485     0.97060
O975        O  0.81289526  0.81781671  0.85877176    -0.71410
O976        O  0.80370272  0.84838295  0.92119105    -0.75010
Al977      Al  0.83447888  0.85673388  0.88445556     1.48980
C978        C  0.80793931  0.85740356  0.95426239     0.92310
O979        O  0.86574682  0.80060817  0.97244561    -0.81230
O980        O  0.92610652  0.81694121  0.88441621    -0.74780
Al981      Al  0.87928666  0.84267956  0.95188746     1.90120
O982        O  0.89017450  0.76868724  0.92974444    -0.73850
O983        O  0.87866025  0.81442455  0.83342273    -0.73700
O984        O  0.83967751  0.77299270  0.88107417    -0.79360
O985        O  0.86343514  0.86752222  0.84485007    -0.77570
O986        O  0.86510402  0.83140133  0.90686143    -1.13700
O987        O  0.84739948  0.90067515  0.90830311    -0.72900
C988        C  0.87295095  0.90843560  0.92767348     0.97820
C989        C  0.87728686  0.77209022  0.96224603     0.94220
Al990      Al  0.88260358  0.79556351  0.88378431     1.55560
O991        O  0.83666029  0.86000123  0.96872991    -0.77520
C992        C  0.87537701  0.84547860  0.82286019     0.98390
C993        C  0.94013155  0.82867146  0.91332230     0.93270
O994        O  0.92480572  0.82784377  0.94433723    -0.82840
O995        O  0.57843567  0.88206195  0.05993493    -0.82300
C996        C  0.69163611  0.94155583  0.12503485     0.97060
O997        O  0.66235958  0.95393777  0.12591614    -0.71410
O998        O  0.62501355  0.96793352  0.07071284    -0.75010
Al999      Al  0.61923414  0.93703005  0.11183032     1.48980
C1000       C  0.61757112  0.96441985  0.03697045     0.92310
O1001       O  0.66308547  0.90090280  0.01946651    -0.81230
O1002       O  0.64067810  0.83052807  0.09555295    -0.74780
Al1003     Al  0.62031169  0.89240835  0.04063259     1.90120
O1004       O  0.68935568  0.86956731  0.06206873    -0.73850
O1005       O  0.64700090  0.87049506  0.15440181    -0.73700
O1006       O  0.69581642  0.90976161  0.11878802    -0.79360
O1007       O  0.61231269  0.91373827  0.15812343    -0.77570
O1008       O  0.63519231  0.90077004  0.08690450    -1.13700
O1009       O  0.57304388  0.92421358  0.10118846    -0.72900
C1010       C  0.56200944  0.89722889  0.08517251     0.97820
C1011       C  0.68800759  0.88335590  0.03023298     0.94220
Al1012     Al  0.66564557  0.87261732  0.10643459     1.55560
O1013       O  0.60666101  0.93630069  0.02604473    -0.77520
C1014       C  0.62549226  0.88738834  0.17216083     0.98390
C1015       C  0.63110199  0.82295452  0.06292444     0.93270
O1016       O  0.62827288  0.84585199  0.03888245    -0.82840
O1017       O  0.91619140  0.63291983  0.43378688    -0.82300
C1018       C  0.81006049  0.69995673  0.36261091     0.97060
O1019       O  0.83945820  0.71201105  0.36468087    -0.71410
O1020       O  0.87876538  0.72515740  0.41902677    -0.75010
Al1021     Al  0.88128164  0.69167224  0.37924787     1.48980
C1022       C  0.88844744  0.72144339  0.45200769     0.92310
O1023       O  0.83603325  0.67023499  0.47090553    -0.81230
O1024       O  0.84982109  0.58824958  0.40653938    -0.74780
Al1025     Al  0.87659799  0.65180999  0.45241686     1.90120
O1026       O  0.80469029  0.63828307  0.43273029    -0.73850
O1027       O  0.85077470  0.62205956  0.34216327    -0.73700
O1028       O  0.80479150  0.66849359  0.36900535    -0.79360
O1029       O  0.88460527  0.66605790  0.33394715    -0.77570
O1030       O  0.86264622  0.65822911  0.40583274    -1.13700
O1031       O  0.92626326  0.67390545  0.39125074    -0.72900
C1032       C  0.93513896  0.64691398  0.40952509     0.97820
C1033       C  0.80800603  0.65760322  0.46115821     0.94220
Al1034     Al  0.83029896  0.63139759  0.38870962     1.55560
O1035       O  0.89900089  0.69294760  0.46190851    -0.77520
C1036       C  0.87087546  0.63899326  0.32215611     0.98390
C1037       C  0.85455513  0.58341066  0.44097095     0.93270
O1038       O  0.85992002  0.60849177  0.46145229    -0.82840
O1039       O  0.60907714  0.63717974  0.56035703    -0.82300
C1040       C  0.69169473  0.53552977  0.62343462     0.97060
O1041       O  0.69269790  0.56743325  0.63170061    -0.71410
O1042       O  0.70027618  0.59943890  0.56881250    -0.75010
Al1043     Al  0.67052115  0.60693202  0.60786837     1.48980
C1044       C  0.69528770  0.61303116  0.53755099     0.92310
O1045       O  0.63830070  0.55386430  0.51944621    -0.81230
O1046       O  0.57830425  0.56726709  0.60850300    -0.74780
Al1047     Al  0.62429898  0.59501305  0.54143763     1.90120
O1048       O  0.61429382  0.52050689  0.56150138    -0.73850
O1049       O  0.62669103  0.56334604  0.65873956    -0.73700
O1050       O  0.66492308  0.52307313  0.60999658    -0.79360
O1051       O  0.64291423  0.61663541  0.64935340    -0.77570
O1052       O  0.63926504  0.58238687  0.58581508    -1.13700
O1053       O  0.65644122  0.65161500  0.58637434    -0.72900
C1054       C  0.63031936  0.65982135  0.56809101     0.97820
C1055       C  0.62717347  0.52491196  0.52911069     0.94220
Al1056     Al  0.62204759  0.54593468  0.60812069     1.55560
O1057       O  0.66600509  0.61470905  0.52435450    -0.77520
C1058       C  0.63117547  0.59376129  0.67059934     0.98390
C1059       C  0.56398201  0.57929403  0.57984227     0.93270
O1060       O  0.57925056  0.57882323  0.54881586    -0.82840
O1061       O  0.58403121  0.85134245  0.43587684    -0.82300
C1062       C  0.69424811  0.79067010  0.36440557     0.97060
O1063       O  0.66553357  0.77709126  0.36702102    -0.71410
O1064       O  0.63009747  0.76237509  0.42487757    -0.75010
Al1065     Al  0.62288601  0.79377385  0.38352476     1.48980
C1066       C  0.61903877  0.76590735  0.45752699     0.92310
O1067       O  0.66769109  0.82343430  0.47234931    -0.81230
O1068       O  0.64517097  0.89985474  0.40277826    -0.74780
Al1069     Al  0.62521508  0.83709280  0.45435746     1.90120
O1070       O  0.69517122  0.85691689  0.43163540    -0.73850
O1071       O  0.64757410  0.86303971  0.34177803    -0.73700
O1072       O  0.69789829  0.82243058  0.37049225    -0.79360
O1073       O  0.61517644  0.81767648  0.33775939    -0.77570
O1074       O  0.63916200  0.82972552  0.40769791    -1.13700
O1075       O  0.57684948  0.80723927  0.39690370    -0.72900
C1076       C  0.56643768  0.83500898  0.41246359     0.97820
C1077       C  0.69444697  0.83781969  0.46050620     0.94220
Al1078     Al  0.66900522  0.85830797  0.38799525     1.55560
O1079       O  0.60646324  0.79391611  0.46653011    -0.77520
C1080       C  0.62668926  0.84523823  0.32418731     0.98390
C1081       C  0.63808561  0.90655493  0.43636071     0.93270
O1082       O  0.63776918  0.88295104  0.45987471    -0.82840
O1083       O  0.89865264  0.85311151  0.55832308    -0.82300
C1084       C  0.81205441  0.94718173  0.62575831     0.97060
O1085       O  0.81150238  0.91484735  0.63206035    -0.71410
O1086       O  0.80593775  0.88610181  0.56796654    -0.75010
Al1087     Al  0.83545248  0.87742852  0.60615585     1.48980
C1088       C  0.81123571  0.87443840  0.53593002     0.92310
O1089       O  0.86636474  0.93557076  0.52060741    -0.81230
O1090       O  0.92699324  0.92006641  0.60815873    -0.74780
Al1091     Al  0.88169152  0.89459592  0.54057935     1.90120
O1092       O  0.88761223  0.96828023  0.56496223    -0.73850
O1093       O  0.87900480  0.91905843  0.65943759    -0.73700
O1094       O  0.83901114  0.96108195  0.61445063    -0.79360
O1095       O  0.86270805  0.86652486  0.64684830    -0.77570
O1096       O  0.86597581  0.90441750  0.58563589    -1.13700
O1097       O  0.85159799  0.83415093  0.58160943    -0.72900
C1098       C  0.87824410  0.82900531  0.56245258     0.97820
C1099       C  0.87474331  0.96465802  0.53257393     0.94220
Al1100     Al  0.88228235  0.93990509  0.61009716     1.55560
O1101       O  0.84064967  0.87377347  0.52245634    -0.77520
C1102       C  0.87495618  0.88789871  0.66926430     0.98390
C1103       C  0.94105815  0.90937668  0.57857230     0.93270
O1104       O  0.92563787  0.91279591  0.54817301    -0.82840
O1105       O  0.08696454  0.62916851  0.06162907    -0.82300
C1106       C  0.19258952  0.69543380  0.13427514     0.97060
O1107       O  0.16325726  0.70724268  0.13140559    -0.71410
O1108       O  0.12714806  0.72024050  0.07464414    -0.75010
Al1109     Al  0.12198163  0.68797738  0.11516633     1.48980
C1110       C  0.11881159  0.71635547  0.04119150     0.92310
O1111       O  0.17034686  0.66159946  0.02626330    -0.81230
O1112       O  0.15110326  0.58338403  0.09421780    -0.74780
Al1113     Al  0.12826649  0.64565361  0.04366368     1.90120
O1114       O  0.19897892  0.63008811  0.06721354    -0.73850
O1115       O  0.14951575  0.61938138  0.15608512    -0.73700
O1116       O  0.19813988  0.66381723  0.12895047    -0.79360
O1117       O  0.11529480  0.66318236  0.16068236    -0.77570
O1118       O  0.14079195  0.65335791  0.09055197    -1.13700
O1119       O  0.07738138  0.67212524  0.10159793    -0.72900
C1120       C  0.06831463  0.64441145  0.08525711     0.97820
C1121       C  0.19768788  0.64904776  0.03831929     0.94220
Al1122     Al  0.17181561  0.62633578  0.11031289     1.55560
O1123       O  0.10865812  0.68774765  0.03091858    -0.77520
C1124       C  0.12773424  0.63601955  0.17395199     0.98390
C1125       C  0.14592780  0.57693846  0.06022160     0.93270
O1126       O  0.14304507  0.60088468  0.03753909    -0.82840
O1127       O  0.39807690  0.63360955  0.93364388    -0.82300
C1128       C  0.31246784  0.53483947  0.87094031     0.97060
O1129       O  0.31172067  0.56696068  0.86340124    -0.71410
O1130       O  0.30557276  0.59953100  0.92601468    -0.75010
Al1131     Al  0.33530948  0.60594489  0.88679944     1.48980
C1132       C  0.31124736  0.61272429  0.95722155     0.92310
O1133       O  0.36619362  0.55153108  0.97476259    -0.81230
O1134       O  0.42662564  0.56409660  0.88557102    -0.74780
Al1135     Al  0.38152319  0.59222047  0.95283039     1.90120
O1136       O  0.38948132  0.51785707  0.93261007    -0.73850
O1137       O  0.37797076  0.56143745  0.83532558    -0.73700
O1138       O  0.33914025  0.52184035  0.88400524    -0.79360
O1139       O  0.36256506  0.61490444  0.84502138    -0.77570
O1140       O  0.36599696  0.58034132  0.90850484    -1.13700
O1141       O  0.35121206  0.65019103  0.90822463    -0.72900
C1142       C  0.37760542  0.65715357  0.92673831     0.97820
C1143       C  0.37678686  0.52241872  0.96509867     0.94220
Al1144     Al  0.38239648  0.54370486  0.88595339     1.55560
O1145       O  0.34063009  0.61334617  0.97025734    -0.77520
C1146       C  0.37328633  0.59183927  0.82356288     0.98390
C1147       C  0.44126982  0.57520837  0.91442396     0.93270
O1148       O  0.42600224  0.57448852  0.94542769    -0.82840
O1149       O  0.10724941  0.85299000  0.93994942    -0.82300
C1150       C  0.19151040  0.94735239  0.86774223     0.97060
O1151       O  0.19192746  0.91502971  0.86164083    -0.71410
O1152       O  0.19846174  0.88956871  0.92686567    -0.75010
Al1153     Al  0.16913612  0.87814679  0.88960585     1.48980
C1154       C  0.19380048  0.88058048  0.96001108     0.92310
O1155       O  0.13706146  0.93813509  0.97200137    -0.81230
O1156       O  0.07711795  0.91957918  0.88533319    -0.74780
Al1157     Al  0.12276840  0.89613920  0.95438895     1.90120
O1158       O  0.11451795  0.96939308  0.92738734    -0.73850
O1159       O  0.12561229  0.91714112  0.83440078    -0.73700
O1160       O  0.16456115  0.96133211  0.87888498    -0.79360
O1161       O  0.14196918  0.86507600  0.84963140    -0.77570
O1162       O  0.13792873  0.90485412  0.90892878    -1.13700
O1163       O  0.15464730  0.83525449  0.91646917    -0.72900
C1164       C  0.12842650  0.82956854  0.93621169     0.97820
C1165       C  0.12747548  0.96660935  0.95978910     0.94220
Al1166     Al  0.12136761  0.93964622  0.88319271     1.55560
O1167       O  0.16456917  0.87804592  0.97360856    -0.77520
C1168       C  0.13049290  0.88574117  0.82579031     0.98390
C1169       C  0.06290573  0.90888716  0.91485388     0.93270
O1170       O  0.07795224  0.91182878  0.94564601    -0.82840
O1171       O  0.41915086  0.84842985  0.06109806    -0.82300
C1172       C  0.30712839  0.78766792  0.12863180     0.97060
O1173       O  0.33582739  0.77403526  0.12678821    -0.71410
O1174       O  0.37333470  0.75957087  0.07036769    -0.75010
Al1175     Al  0.37886331  0.79094722  0.11191428     1.48980
C1176       C  0.38474325  0.76333089  0.03788919     0.92310
O1177       O  0.33707788  0.82225447  0.02030340    -0.81230
O1178       O  0.35706457  0.89742188  0.09172734    -0.74780
Al1179     Al  0.37878633  0.83465712  0.04084366     1.90120
O1180       O  0.30825159  0.85463856  0.06092798    -0.73850
O1181       O  0.35280476  0.86003749  0.15276261    -0.73700
O1182       O  0.30360284  0.81939520  0.12200444    -0.79360
O1183       O  0.38486202  0.81458485  0.15799439    -0.77570
O1184       O  0.36320808  0.82694534  0.08692828    -1.13700
O1185       O  0.42522181  0.80469489  0.10073808    -0.72900
C1186       C  0.43573926  0.83270923  0.08577760     0.97820
C1187       C  0.31065288  0.83798070  0.03056436     0.94220
Al1188     Al  0.33285756  0.85550828  0.10560572     1.55560
O1189       O  0.39709342  0.79146781  0.02887606    -0.77520
C1190       C  0.37285808  0.84196552  0.17124951     0.98390
C1191       C  0.36565953  0.90408853  0.05849286     0.93270
O1192       O  0.36721316  0.88044413  0.03527721    -0.82840
O1193       O  0.08267456  0.60013096  0.43762389    -0.82300
C1194       C  0.19115079  0.53484714  0.36677482     0.97060
O1195       O  0.16207104  0.52222180  0.36990140    -0.71410
O1196       O  0.12633617  0.51005053  0.42779430    -0.75010
Al1197     Al  0.11984965  0.54068538  0.38588440     1.48980
C1198       C  0.11619546  0.51434949  0.46065445     0.92310
O1199       O  0.16639712  0.57136843  0.47351531    -0.81230
O1200       O  0.14541621  0.64668860  0.40229343    -0.74780
Al1201     Al  0.12392496  0.58547807  0.45573436     1.90120
O1202       O  0.19401667  0.60300462  0.43133315    -0.73850
O1203       O  0.14598733  0.60832942  0.34211094    -0.73700
O1204       O  0.19554852  0.56675861  0.37141359    -0.79360
O1205       O  0.11269394  0.56357250  0.33927651    -0.77570
O1206       O  0.13718730  0.57674730  0.40902594    -1.13700
O1207       O  0.07423393  0.55581004  0.39922067    -0.72900
C1208       C  0.06434986  0.58370901  0.41497082     0.97820
C1209       C  0.19329132  0.58482653  0.46079546     0.94220
Al1210     Al  0.16764688  0.60398751  0.38819689     1.55560
O1211       O  0.10466939  0.54285510  0.46960904    -0.77520
C1212       C  0.12490117  0.59047615  0.32491289     0.98390
C1213       C  0.13976383  0.65446854  0.43595404     0.93270
O1214       O  0.13732768  0.63134722  0.45989057    -0.82840
O1215       O  0.39414652  0.60152914  0.55631782    -0.82300
C1216       C  0.31144421  0.69683930  0.62842126     0.97060
O1217       O  0.31088480  0.66457923  0.63528920    -0.71410
O1218       O  0.30255919  0.63701976  0.57109725    -0.75010
Al1219     Al  0.33305083  0.62688507  0.60802476     1.48980
C1220       C  0.30705345  0.62582703  0.53880727     0.92310
O1221       O  0.36282395  0.68607048  0.52437587    -0.81230
O1222       O  0.42533304  0.66742820  0.60939935    -0.74780
Al1223     Al  0.37798146  0.64441733  0.54193833     1.90120
O1224       O  0.38844040  0.71718217  0.56666218    -0.73850
O1225       O  0.37735627  0.66722381  0.66128739    -0.73700
O1226       O  0.33833535  0.71049579  0.61631520    -0.79360
O1227       O  0.36084483  0.61475478  0.64763944    -0.77570
O1228       O  0.36389413  0.65337281  0.58746760    -1.13700
O1229       O  0.34753589  0.58352902  0.58185336    -0.72900
C1230       C  0.37318808  0.57801549  0.56109790     0.97820
C1231       C  0.37478890  0.71424626  0.53458814     0.94220
Al1232     Al  0.38136949  0.68840277  0.61189338     1.55560
O1233       O  0.33607120  0.62561674  0.52443165    -0.77520
C1234       C  0.37199032  0.63614979  0.67073952     0.98390
C1235       C  0.43883911  0.65676998  0.57944834     0.93270
O1236       O  0.42308154  0.66038734  0.54916003    -0.82840
O1237       O  0.10791734  0.88353701  0.56007557    -0.82300
C1238       C  0.18985553  0.78327309  0.62657979     0.97060
O1239       O  0.19006275  0.81511520  0.63520554    -0.71410
O1240       O  0.19873584  0.84653387  0.57270237    -0.75010
Al1241     Al  0.16806560  0.85416461  0.61042908     1.48980
C1242       C  0.19472090  0.85838925  0.54049096     0.92310
O1243       O  0.13839504  0.79952574  0.52178529    -0.81230
O1244       O  0.07653535  0.81390245  0.60936693    -0.74780
Al1245     Al  0.12371830  0.84100766  0.54271476     1.90120
O1246       O  0.11330897  0.76650147  0.56335930    -0.73850
O1247       O  0.12436491  0.81031304  0.66075307    -0.73700
O1248       O  0.16348781  0.77023929  0.61272889    -0.79360
O1249       O  0.13930947  0.86393976  0.65099419    -0.77570
O1250       O  0.13768034  0.82907317  0.58770650    -1.13700
O1251       O  0.15426601  0.89846579  0.58797204    -0.72900
C1252       C  0.12856738  0.90641227  0.56886628     0.97820
C1253       C  0.12710415  0.77065724  0.53140407     0.94220
Al1254     Al  0.12036526  0.79259714  0.61000071     1.55560
O1255       O  0.16578632  0.86036750  0.52642609    -0.77520
C1256       C  0.12831419  0.84086816  0.67247534     0.98390
C1257       C  0.06299177  0.82625690  0.58035643     0.93270
O1258       O  0.07868170  0.82478617  0.54958993    -0.82840
O1259       O  0.41855562  0.88015706  0.43361886    -0.82300
C1260       C  0.30918895  0.94559514  0.36625376     0.97060
O1261       O  0.33863556  0.95775043  0.36687374    -0.71410
O1262       O  0.37716287  0.97048980  0.42208796    -0.75010
Al1263     Al  0.38121489  0.93866376  0.38127954     1.48980
C1264       C  0.38684781  0.96659072  0.45510190     0.92310
O1265       O  0.33736888  0.91179551  0.47292499    -0.81230
O1266       O  0.35472194  0.83434029  0.40310750    -0.74780
Al1267     Al  0.37837923  0.89629266  0.45318678     1.90120
O1268       O  0.30714277  0.87959721  0.43396425    -0.73850
O1269       O  0.35166827  0.87074655  0.34161542    -0.73700
O1270       O  0.30437890  0.91400843  0.37275154    -0.79360
O1271       O  0.38627008  0.91412943  0.33554787    -0.77570
O1272       O  0.36373430  0.90397959  0.40692082    -1.13700
O1273       O  0.42688346  0.92269244  0.39270424    -0.72900
C1274       C  0.43658920  0.89519689  0.40937118     0.97820
C1275       C  0.30996676  0.89801625  0.46307918     0.94220
Al1276     Al  0.33202588  0.87680204  0.38900866     1.55560
O1277       O  0.39854485  0.93837020  0.46444147    -0.77520
C1278       C  0.37284686  0.88733131  0.32272605     0.98390
C1279       C  0.36277082  0.82785201  0.43641077     0.93270
O1280       O  0.36406499  0.85150609  0.45959324    -0.82840
C1281       C  0.28132506  0.89883180  0.48745020    -0.05960
C1282       C  0.24998548  0.90474236  0.47132888    -0.33390
C1283       C  0.22118955  0.89167363  0.48810402     0.35860
C1284       C  0.22396525  0.87275326  0.52149749    -0.06320
C1285       C  0.25533767  0.86942239  0.53886242    -0.33290
C1286       C  0.28394001  0.88255422  0.52212343     0.35760
H1287       H  0.24821637  0.91698798  0.44416894     0.16130
O1288       O  0.19084435  0.89682630  0.47119174    -0.60790
H1289       H  0.25807904  0.85549781  0.56490567     0.16150
O1290       O  0.31464464  0.87528408  0.53729151    -0.60890
H1291       H  0.31906651  0.89435260  0.55493425     0.43140
H1292       H  0.18862859  0.87776980  0.45299521     0.43100
C1293       C  0.22095766  0.76136695  0.63164267    -0.05960
C1294       C  0.21871520  0.72517379  0.63187669    -0.33390
C1295       C  0.24758637  0.70408600  0.63312090     0.35860
C1296       C  0.28014384  0.71865536  0.63295542    -0.06320
C1297       C  0.28236239  0.75486780  0.63345522    -0.33290
C1298       C  0.25347172  0.77596793  0.63335542     0.35760
H1299       H  0.19433604  0.71297492  0.63057493     0.16130
O1300       O  0.24350636  0.66911337  0.63241981    -0.60790
H1301       H  0.30676808  0.76708849  0.63322666     0.16150
O1302       O  0.25759718  0.81097203  0.63267990    -0.60890
H1303       H  0.25845808  0.81794743  0.65928750     0.43140
H1304       H  0.24154576  0.66212165  0.65899000     0.43100
C1305       C  0.37350915  0.74239841  0.50700148    -0.05960
C1306       C  0.34673009  0.74327679  0.48140819    -0.33390
C1307       C  0.34489904  0.76877094  0.45385673     0.35860
C1308       C  0.37020168  0.79364735  0.45138263    -0.06320
C1309       C  0.39819691  0.79115592  0.47507102    -0.33290
C1310       C  0.39980802  0.76604147  0.50296858     0.34800
H1311       H  0.32647013  0.72479004  0.48363798     0.16130
O1312       O  0.31670783  0.77127699  0.43231488    -0.60790
H1313       H  0.41765457  0.81061092  0.47390367     0.16150
O1314       O  0.42721445  0.76472193  0.52585811    -0.60890
H1315       H  0.42213985  0.78090831  0.54650921     0.43140
H1316       H  0.32251363  0.75947351  0.40861583     0.43100
C1317       C  0.38364104  0.99419083  0.48313128    -0.05960
C1318       C  0.38480634  0.52807406  0.47103045    -0.33390
C1319       C  0.38119234  0.55499639  0.49620701     0.35860
C1320       C  0.37550298  0.54852401  0.53486690    -0.06320
C1321       C  0.37357731  0.51439802  0.54711836    -0.33290
C1322       C  0.37800792  0.98722261  0.52159339     0.35760
H1323       H  0.38903298  0.53390339  0.44174805     0.16130
O1324       O  0.38393183  0.58772059  0.48233602    -0.60790
H1325       H  0.36941852  0.00881089  0.57643597     0.16150
O1326       O  0.37660427  0.95402864  0.53450293    -0.60890
H1327       H  0.35237659  0.94861858  0.53655933     0.43140
H1328       H  0.36381262  0.59127261  0.46666624     0.43100
C1329       C  0.22094456  0.51174527  0.36030097    -0.05960
C1330       C  0.25343993  0.52585460  0.35770290    -0.33390
C1331       C  0.28228002  0.50490392  0.35808433     0.35860
C1332       C  0.27935781  0.96868428  0.36032356    -0.06320
C1333       C  0.24681036  0.95454507  0.36081333    -0.33290
C1334       C  0.21803356  0.97546895  0.36079157     0.35760
H1335       H  0.25671431  0.55348753  0.35679365     0.16130
O1336       O  0.31317447  0.52038074  0.35741173    -0.60790
H1337       H  0.24345609  0.92694205  0.36262479     0.16150
O1338       O  0.18723734  0.95993562  0.36328439    -0.60890
H1339       H  0.18008647  0.95652378  0.33707173     0.43140
H1340       H  0.31809201  0.52595301  0.38385138     0.43100
C1341       C  0.13697885  0.68983288  0.45009278    -0.05960
C1342       C  0.10505826  0.70188337  0.46053366    -0.33390
C1343       C  0.10142101  0.72798248  0.48734205     0.35860
C1344       C  0.12992586  0.74233426  0.50417047    -0.06320
C1345       C  0.16184790  0.73164008  0.49229400    -0.33290
C1346       C  0.16548597  0.70528132  0.46589719     0.35760
H1347       H  0.08284604  0.68943010  0.44971956     0.16130
O1348       O  0.06997924  0.73940200  0.49676081    -0.60790
H1349       H  0.18402978  0.74289396  0.50463294     0.16150
O1350       O  0.19686033  0.69248265  0.45849298    -0.60890
H1351       H  0.20385807  0.70347608  0.43468534     0.43140
H1352       H  0.06276763  0.72469238  0.51798890     0.43100
C1353       C  0.11947329  0.98758474  0.48968979    -0.05960
C1354       C  0.09132521  0.97746291  0.51064203    -0.33390
C1355       C  0.09425752  0.95302827  0.53934327     0.35860
C1356       C  0.12597079  0.93958754  0.54874899    -0.06320
C1357       C  0.15443247  0.95185903  0.52958761    -0.33290
C1358       C  0.15129217  0.97521142  0.49987539     0.35760
H1359       H  0.06684367  0.98774672  0.50396006     0.16130
O1360       O  0.06592567  0.94185447  0.55763146    -0.60790
H1361       H  0.17895211  0.94144809  0.53583785     0.16150
O1362       O  0.17955035  0.48636545  0.48146676    -0.60890
H1363       H  0.18233701  0.47049645  0.46001573     0.43140
H1364       H  0.05510365  0.92537195  0.54034728     0.43100
C1365       C  0.22419636  0.58353028  0.48168295    -0.05960
C1366       C  0.22244181  0.58681446  0.52034510    -0.33390
C1367       C  0.24964272  0.60004501  0.53959829     0.35860
C1368       C  0.27898115  0.60972804  0.51976265    -0.06320
C1369       C  0.28202400  0.60200495  0.48183824    -0.33290
C1370       C  0.25484545  0.58875156  0.46269921     0.35760
H1371       H  0.19909981  0.58226163  0.53521163     0.16130
O1372       O  0.24705859  0.60380127  0.57760680    -0.60790
H1373       H  0.30487349  0.60767591  0.46655088     0.16150
O1374       O  0.25774865  0.58274233  0.42503647    -0.60890
H1375       H  0.25898757  0.60576506  0.41309983     0.43140
H1376       H  0.23145076  0.62332589  0.58144067     0.43100
C1377       C  0.38042297  0.87558364  0.28438668    -0.05960
C1378       C  0.37905736  0.84026791  0.27622837    -0.33390
C1379       C  0.37959916  0.82868061  0.23923914     0.35860
C1380       C  0.38059518  0.85262382  0.20973812    -0.06320
C1381       C  0.38400689  0.88776363  0.21789193    -0.33290
C1382       C  0.38447400  0.89928947  0.25491207     0.35760
H1383       H  0.37605919  0.82166892  0.29858590     0.16130
O1384       O  0.37564260  0.79424798  0.23226578    -0.60790
H1385       H  0.38482029  0.90647720  0.19543077     0.16150
O1386       O  0.38553298  0.93396354  0.26175044    -0.60890
H1387       H  0.40970063  0.93959183  0.26372518     0.43140
H1388       H  0.39871693  0.78483100  0.23117227     0.43100
C1389       C  0.12543791  0.87282194  0.78710222    -0.05960
C1390       C  0.14086573  0.84165092  0.77660295    -0.33390
C1391       C  0.14026194  0.83011568  0.73966333     0.35860
C1392       C  0.12363838  0.84941937  0.71227950    -0.06320
C1393       C  0.10708361  0.87986449  0.72269064    -0.33290
C1394       C  0.10769702  0.89152086  0.75983846     0.35760
H1395       H  0.15492340  0.82676384  0.79674539     0.16130
O1396       O  0.15794373  0.80111345  0.73016703    -0.60790
H1397       H  0.09435621  0.89508319  0.70173879     0.16150
O1398       O  0.09089839  0.92108914  0.76909724    -0.60890
H1399       H  0.10635578  0.94010320  0.76228785     0.43140
H1400       H  0.18048928  0.80945161  0.72256421     0.43100
C1401       C  0.28326699  0.84258398  0.00549919    -0.05960
C1402       C  0.25336010  0.82508317  0.01297371    -0.33390
C1403       C  0.22311048  0.83840899  0.00026581     0.35860
C1404       C  0.22313716  0.86950426  0.98016781    -0.06320
C1405       C  0.25330602  0.88650142  0.97227843    -0.33290
C1406       C  0.28332693  0.87307770  0.98457679     0.35760
H1407       H  0.25340536  0.80207573  0.03009800     0.16130
O1408       O  0.19405195  0.82033541  0.00630577    -0.60790
H1409       H  0.25354217  0.91023081  0.95631224     0.16150
O1410       O  0.31225095  0.89162147  0.97917097    -0.60890
H1411       H  0.32353928  0.88070466  0.95748307     0.43140
H1412       H  0.18557747  0.82830459  0.03090461     0.43100
C1413       C  0.37427690  0.62485236  0.70982577    -0.05960
C1414       C  0.34553009  0.61013768  0.72592136    -0.33390
C1415       C  0.34575188  0.59825153  0.76262252     0.35860
C1416       C  0.37527503  0.60003855  0.78364655    -0.06320
C1417       C  0.40434753  0.61441112  0.76766883    -0.33290
C1418       C  0.40394820  0.62689565  0.73074173     0.35760
H1419       H  0.32250572  0.60846847  0.71008928     0.16130
O1420       O  0.31674227  0.58540892  0.77803863    -0.60790
H1421       H  0.42702111  0.61649721  0.78398145     0.16150
O1422       O  0.43272543  0.63987071  0.71502900    -0.60890
H1423       H  0.43199437  0.66492142  0.72008825     0.43140
H1424       H  0.30512897  0.60558349  0.78903475     0.43100
C1425       C  0.22298125  0.96888185  0.86356527    -0.05960
C1426       C  0.22087416  0.50464018  0.85742892    -0.33390
C1427       C  0.24961106  0.52603742  0.85796533     0.35860
C1428       C  0.28174892  0.51226878  0.86553246    -0.06320
C1429       C  0.28387772  0.97632713  0.87076884    -0.33290
C1430       C  0.25525287  0.95487212  0.86947670     0.35760
H1431       H  0.19661077  0.51632160  0.85277605     0.16130
O1432       O  0.24568447  0.56059106  0.85181259    -0.60790
H1433       H  0.30789774  0.96465548  0.87675438     0.16150
O1434       O  0.25902327  0.92043155  0.87654727    -0.60890
H1435       H  0.26376456  0.90989029  0.85187679     0.43140
H1436       H  0.23716682  0.56989062  0.87579528     0.43100
C1437       C  0.37328212  0.93861532  0.04367351    -0.05960
C1438       C  0.34925850  0.96475787  0.04588379    -0.33390
C1439       C  0.35042802  0.49265898  0.02088978     0.35860
C1440       C  0.37568553  0.99430499  0.99295035    -0.06320
C1441       C  0.40079828  0.96932208  0.99246239    -0.33290
C1442       C  0.39981365  0.94175524  0.01745665     0.35760
H1443       H  0.32815460  0.96221155  0.06488392     0.16130
O1444       O  0.32524291  0.51663724  0.02206794    -0.60790
H1445       H  0.42095071  0.97071300  0.97207532     0.16150
O1446       O  0.42409405  0.91683928  0.01484003    -0.60890
H1447       H  0.41870054  0.90350307  0.99205287     0.43140
H1448       H  0.33221570  0.53345598  0.04131422     0.43100
C1449       C  0.38276113  0.73630083  0.00919341    -0.05960
C1450       C  0.41213037  0.72010060  0.99704028    -0.33390
C1451       C  0.41150899  0.69674970  0.96731979     0.35860
C1452       C  0.38101926  0.68932507  0.94880368    -0.06320
C1453       C  0.35200618  0.70728846  0.95968629    -0.33290
C1454       C  0.35279950  0.73075538  0.98947953     0.35760
H1455       H  0.43562985  0.72531291  0.01096775     0.16130
O1456       O  0.44058689  0.67985048  0.95808777    -0.60790
H1457       H  0.32821349  0.70175498  0.94655706     0.16150
O1458       O  0.32404695  0.74780769  0.99953794    -0.60890
H1459       H  0.32077886  0.76554108  0.97994589     0.43140
H1460       H  0.44936439  0.69188129  0.93563181     0.43100
C1461       C  0.11844524  0.62397730  0.21181289    -0.05960
C1462       C  0.11986855  0.58863030  0.22003695    -0.33390
C1463       C  0.11873121  0.57694422  0.25704719     0.35860
C1464       C  0.11651864  0.60078963  0.28646510    -0.06320
C1465       C  0.11263159  0.63586363  0.27814401    -0.33290
C1466       C  0.11306626  0.64750030  0.24111667     0.35760
H1467       H  0.12372533  0.57013852  0.19780497     0.16130
O1468       O  0.12269157  0.54251372  0.26422082    -0.60790
H1469       H  0.11109019  0.65451047  0.30056002     0.16150
O1470       O  0.11179442  0.68218374  0.23426938    -0.60890
H1471       H  0.08766145  0.68742614  0.23107583     0.43140
H1472       H  0.14721237  0.53905180  0.26666551     0.43100
C1473       C  0.22118929  0.71973133  0.14030580    -0.05960
C1474       C  0.21675589  0.75491854  0.13245048    -0.33390
C1475       C  0.24409059  0.77765762  0.13050811     0.35860
C1476       C  0.27704798  0.76559912  0.13652067    -0.06320
C1477       C  0.28119945  0.73094710  0.14710130    -0.33290
C1478       C  0.25373542  0.70814391  0.14910464     0.35760
H1479       H  0.19207827  0.76473690  0.12586224     0.16130
O1480       O  0.23820223  0.81145498  0.12166123    -0.60790
H1481       H  0.30602083  0.72110716  0.15292824     0.16150
O1482       O  0.25879599  0.67474901  0.16032040    -0.60890
H1483       H  0.27566758  0.66498267  0.14289552     0.43140
H1484       H  0.23524188  0.81189798  0.09419966     0.43100
C1485       C  0.13152025  0.99572704  0.98526673    -0.05960
C1486       C  0.16391215  0.50834019  0.99154208    -0.33390
C1487       C  0.16998713  0.53175498  0.02036463     0.35860
C1488       C  0.14360399  0.54248995  0.04393852    -0.06320
C1489       C  0.11154004  0.52846419  0.03868748    -0.33290
C1490       C  0.10544612  0.00507458  0.00975426     0.35760
H1491       H  0.18453221  0.00009732  0.97384640     0.16130
O1492       O  0.20118084  0.54634460  0.02326924    -0.60790
H1493       H  0.09068229  0.53730672  0.05541108     0.16150
O1494       O  0.07406495  0.99115021  0.00591216    -0.60890
H1495       H  0.06249942  0.00622568  0.98772509     0.43140
H1496       H  0.21250099  0.53329173  0.04337866     0.43100
C1497       C  0.12519228  0.79954008  0.96183509    -0.05960
C1498       C  0.13567340  0.76654906  0.95141379    -0.33390
C1499       C  0.13298439  0.73896267  0.97677248     0.35860
C1500       C  0.12115077  0.74458131  0.01367258    -0.06320
C1501       C  0.11164575  0.77752309  0.02429438    -0.33290
C1502       C  0.11282276  0.80461669  0.99879836     0.35760
H1503       H  0.14558824  0.76208768  0.92360673     0.16130
O1504       O  0.14337546  0.70692850  0.96572460    -0.60790
H1505       H  0.10271068  0.78227808  0.05247358     0.16150
O1506       O  0.10340789  0.83648677  0.01130400    -0.60890
H1507       H  0.07856485  0.83602632  0.01206340     0.43140
H1508       H  0.12363816  0.69643888  0.95347422     0.43100
C1509       C  0.22850154  0.65256402  0.01699003    -0.05960
C1510       C  0.22679198  0.65091752  0.97817974    -0.33390
C1511       C  0.25435848  0.63936869  0.95791692     0.35860
C1512       C  0.28384380  0.62967894  0.97691570    -0.06320
C1513       C  0.28704686  0.63678426  0.01493770    -0.33290
C1514       C  0.25945551  0.64827763  0.03511974     0.35760
H1515       H  0.20328492  0.65518120  0.96388048     0.16130
O1516       O  0.25200461  0.63699582  0.91978178    -0.60790
H1517       H  0.31020007  0.63144410  0.02950989     0.16150
O1518       O  0.26224884  0.65316704  0.07291454    -0.60890
H1519       H  0.26410742  0.62980104  0.08389605     0.43140
H1520       H  0.23635169  0.61768836  0.91516608     0.43100
C1521       C  0.97330702  0.88949778  0.57926042    -0.05960
C1522       C  0.99010887  0.88318837  0.61309605    -0.33390
C1523       C  0.01839518  0.86142387  0.61448762     0.35860
C1524       C  0.03036698  0.84513162  0.58173757    -0.06320
C1525       C  0.01341050  0.85128316  0.54815961    -0.33290
C1526       C  0.98554365  0.87306940  0.54660547     0.35760
H1527       H  0.98125446  0.89505400  0.63866601     0.16130
O1528       O  0.03502352  0.85769042  0.64765114    -0.60790
H1529       H  0.02213599  0.83948554  0.52248183     0.16150
O1530       O  0.97008312  0.87732590  0.51280500    -0.60890
H1531       H  0.98157522  0.89719013  0.50093432     0.43140
H1532       H  0.02409981  0.83787687  0.66025696     0.43100
C1533       C  0.53345845  0.84960377  0.40359534    -0.05960
C1534       C  0.50502766  0.82866580  0.40285127    -0.33390
C1535       C  0.47314387  0.84350121  0.40181580     0.35860
C1536       C  0.46954664  0.87972510  0.40160569    -0.06320
C1537       C  0.49804123  0.90044865  0.39846513    -0.33290
C1538       C  0.52991844  0.88559479  0.39938322     0.35760
H1539       H  0.50743609  0.80099929  0.40532980     0.16130
O1540       O  0.44558170  0.82239238  0.40291662    -0.60790
H1541       H  0.49566459  0.92819881  0.39765540     0.16150
O1542       O  0.55751639  0.90663859  0.39790363    -0.60890
H1543       H  0.56705543  0.90348311  0.37250065     0.43140
H1544       H  0.43694346  0.82210741  0.37700396     0.43100
C1545       C  0.72546395  0.83565987  0.48119577    -0.05960
C1546       C  0.75560367  0.83907438  0.46100072    -0.33390
C1547       C  0.78436399  0.85091647  0.47844172     0.35860
C1548       C  0.78302869  0.85874174  0.51663374    -0.06320
C1549       C  0.75393492  0.85095324  0.53753839    -0.33290
C1550       C  0.72518137  0.83935496  0.52001724     0.35760
H1551       H  0.75602534  0.83557420  0.43099471     0.16130
O1552       O  0.81279319  0.85655901  0.45755734    -0.60790
H1553       H  0.75288932  0.85526190  0.56741413     0.16150
O1554       O  0.69614454  0.83580383  0.54038187    -0.60890
H1555       H  0.69481241  0.81098155  0.54663115     0.43140
H1556       H  0.81097329  0.88064602  0.44862781     0.43100
C1557       C  0.47139403  0.63748652  0.57966924    -0.05960
C1558       C  0.49162879  0.63676666  0.61176856    -0.33390
C1559       C  0.52113209  0.61683308  0.61294167     0.35860
C1560       C  0.53064163  0.59646051  0.58199626    -0.06320
C1561       C  0.51025273  0.59683974  0.55025379    -0.33290
C1562       C  0.48109902  0.61684906  0.54883708     0.35760
H1563       H  0.48475935  0.65196290  0.63596191     0.16130
O1564       O  0.54104008  0.61845699  0.64399116    -0.60790
H1565       H  0.51716932  0.58171549  0.52600327     0.16150
O1566       O  0.46176620  0.61498192  0.51736321    -0.60890
H1567       H  0.47136556  0.63229291  0.49996028     0.43140
H1568       H  0.55809799  0.63629193  0.63818590     0.43100
C1569       C  0.72229702  0.51278936  0.62846921    -0.05960
C1570       C  0.71964187  0.97668970  0.62543572    -0.33390
C1571       C  0.74818146  0.95506344  0.62626979     0.35860
C1572       C  0.78077801  0.96902064  0.63000372    -0.06320
C1573       C  0.78337839  0.00503170  0.63378943    -0.33290
C1574       C  0.75484320  0.52661521  0.63346297     0.35760
H1575       H  0.69526040  0.96503075  0.62148622     0.16130
O1576       O  0.74384951  0.92033408  0.62177513    -0.60790
H1577       H  0.80788742  0.01676739  0.63634792     0.16150
O1578       O  0.75947492  0.56146914  0.63605840    -0.60890
H1579       H  0.75884185  0.56651372  0.66319716     0.43140
H1580       H  0.74347573  0.91668286  0.59437027     0.43100
C1581       C  0.63088527  0.94117395  0.45083671    -0.05960
C1582       C  0.65602439  0.96629023  0.45018780    -0.33390
C1583       C  0.65489888  0.99397477  0.47529183     0.35860
C1584       C  0.62830449  0.99671211  0.50148337    -0.06320
C1585       C  0.60221423  0.97272613  0.50044086    -0.33290
C1586       C  0.60331572  0.94520796  0.47538851     0.35760
H1587       H  0.67785326  0.96298760  0.43239560     0.16130
O1588       O  0.68088293  0.51710363  0.47537777    -0.60790
H1589       H  0.58117069  0.97493456  0.51957009     0.16150
O1590       O  0.57794021  0.92135615  0.47611579    -0.60890
H1591       H  0.58214379  0.90693297  0.49847781     0.43140
H1592       H  0.69663030  0.00850206  0.49457701     0.43100
C1593       C  0.62213795  0.73903834  0.48646426    -0.05960
C1594       C  0.59382093  0.72944363  0.50744424    -0.33390
C1595       C  0.59645974  0.70578899  0.53690134     0.35860
C1596       C  0.62805301  0.69252275  0.54701540    -0.06320
C1597       C  0.65667905  0.70417524  0.52767034    -0.33290
C1598       C  0.65384766  0.72692655  0.49735294     0.35760
H1599       H  0.56941922  0.73968543  0.50033561     0.16130
O1600       O  0.56794592  0.69520437  0.55525951    -0.60790
H1601       H  0.68111290  0.69385058  0.53440789     0.16150
O1602       O  0.68218835  0.73706918  0.47842692    -0.60890
H1603       H  0.69114597  0.75676347  0.49283587     0.43140
H1604       H  0.55713892  0.67837967  0.53835147     0.43100
C1605       C  0.96819903  0.63090021  0.40364737    -0.05960
C1606       C  0.97073647  0.59477823  0.40535426    -0.33390
C1607       C  0.00203844  0.57857218  0.40649213     0.35860
C1608       C  0.03125862  0.59862291  0.40692867    -0.06320
C1609       C  0.02875006  0.63457620  0.40304511    -0.33290
C1610       C  0.99750278  0.65072435  0.40095296     0.35760
H1611       H  0.94828392  0.57913279  0.40720972     0.16130
O1612       O  0.00365738  0.54353419  0.41046406    -0.60790
H1613       H  0.05118042  0.65031923  0.40287760     0.16150
O1614       O  0.99592781  0.68593647  0.39971415    -0.60890
H1615       H  0.99621842  0.69183442  0.37275676     0.43140
H1616       H  0.00423754  0.53442550  0.38461390     0.43100
C1617       C  0.78080228  0.72328613  0.35559527    -0.05960
C1618       C  0.78505284  0.75921614  0.35651270    -0.33390
C1619       C  0.75735160  0.78162386  0.35686098     0.35860
C1620       C  0.72426204  0.76842432  0.35676017    -0.06320
C1621       C  0.72014391  0.73263060  0.35330750    -0.33290
C1622       C  0.74777787  0.71028781  0.35251048     0.35760
H1623       H  0.80996100  0.77010793  0.35867088     0.16130
O1624       O  0.76312722  0.81630543  0.35928333    -0.60790
H1625       H  0.69522887  0.72156511  0.35272708     0.16150
O1626       O  0.74187283  0.67558700  0.35060944    -0.60890
H1627       H  0.74367586  0.66981805  0.32370121     0.43140
H1628       H  0.76355937  0.82461491  0.33308519     0.43100
C1629       C  0.85416559  0.54989371  0.46030502    -0.05960
C1630       C  0.84410738  0.55020677  0.49817125    -0.33390
C1631       C  0.85185258  0.52317653  0.52209504     0.35860
C1632       C  0.86863169  0.99432557  0.50813310    -0.06320
C1633       C  0.87639002  0.99250798  0.46967672    -0.33290
C1634       C  0.86959344  0.52033870  0.44577577     0.35760
H1635       H  0.83163312  0.57254104  0.50987257     0.16130
O1636       O  0.84205406  0.52480273  0.55885887    -0.60790
H1637       H  0.88864181  0.96987163  0.45846077     0.16150
O1638       O  0.88020877  0.01931755  0.40931048    -0.60890
H1639       H  0.86065458  0.01080052  0.39507636     0.43140
H1640       H  0.86050376  0.53693277  0.57180110     0.43100
C1641       C  0.88587058  0.74883736  0.48015340    -0.05960
C1642       C  0.86955750  0.74200941  0.51447967    -0.33390
C1643       C  0.86708266  0.76733902  0.54229737     0.35860
C1644       C  0.88225264  0.79949095  0.53653118    -0.06320
C1645       C  0.89930868  0.80562604  0.50234309    -0.33290
C1646       C  0.90046484  0.78098514  0.47412416     0.35760
H1647       H  0.85821872  0.71710629  0.51950076     0.16130
O1648       O  0.84975206  0.76045643  0.57464169    -0.60790
H1649       H  0.91097101  0.83024126  0.49661835     0.16150
O1650       O  0.91690763  0.78818878  0.44127084    -0.60890
H1651       H  0.89977962  0.79884508  0.42497287     0.43140
H1652       H  0.86682662  0.75196212  0.59242089     0.43100
C1653       C  0.77896621  0.66045983  0.48512900    -0.05960
C1654       C  0.74765273  0.66218118  0.46772216    -0.33390
C1655       C  0.71982281  0.64692201  0.48436307     0.35860
C1656       C  0.72333111  0.63053880  0.51921142    -0.06320
C1657       C  0.75387298  0.63305710  0.53849064    -0.33290
C1658       C  0.78159154  0.64824319  0.52176931     0.35760
H1659       H  0.74565120  0.67184858  0.43938594     0.16130
O1660       O  0.68994363  0.64690917  0.46560897    -0.60790
H1661       H  0.75684631  0.62194999  0.56605055     0.16150
O1662       O  0.81205291  0.64632800  0.53922939    -0.60890
H1663       H  0.81518771  0.66914210  0.55104254     0.43140
H1664       H  0.69051088  0.62599512  0.44979587     0.43100
C1665       C  0.53003786  0.88135245  0.09602372    -0.05960
C1666       C  0.50099046  0.90101331  0.09952233    -0.33390
C1667       C  0.46966587  0.88469856  0.09997397     0.35860
C1668       C  0.46764261  0.84851586  0.09649066    -0.06320
C1669       C  0.49678395  0.82881658  0.09818456    -0.33290
C1670       C  0.52796153  0.84509816  0.09858064     0.35760
H1671       H  0.50240652  0.92884373  0.09939139     0.16130
O1672       O  0.44095745  0.90399237  0.10350797    -0.60790
H1673       H  0.49549571  0.80101251  0.09674211     0.16150
O1674       O  0.55639989  0.82531670  0.09941412    -0.60890
H1675       H  0.56504075  0.82748939  0.12521815     0.43140
H1676       H  0.44199730  0.92172041  0.08362153     0.43100
C1677       C  0.61772280  0.85610271  0.28606965    -0.05960
C1678       C  0.61601070  0.83135873  0.25772495    -0.33390
C1679       C  0.61637591  0.84135786  0.22015147     0.35860
C1680       C  0.61736427  0.87655340  0.21061050    -0.06320
C1681       C  0.61556699  0.90128086  0.23897460    -0.33290
C1682       C  0.61606332  0.89127656  0.27654288     0.35760
H1683       H  0.61707136  0.80422170  0.26457037     0.16130
O1684       O  0.61674532  0.81657523  0.19289318    -0.60790
H1685       H  0.61629551  0.92841943  0.23206931     0.16150
O1686       O  0.61690241  0.91609789  0.30369511    -0.60890
H1687       H  0.59307865  0.92088523  0.30974751     0.43140
H1688       H  0.64027822  0.80843117  0.19154791     0.43100
C1689       C  0.97303538  0.84638515  0.91107983    -0.05960
C1690       C  0.97867454  0.87167386  0.88353231    -0.33390
C1691       C  0.00731424  0.89291217  0.88455818     0.35860
C1692       C  0.03070895  0.88931648  0.91367838    -0.06320
C1693       C  0.02489717  0.86380673  0.94096974    -0.33290
C1694       C  0.99669263  0.84240874  0.93965793     0.35760
H1695       H  0.96017276  0.87586885  0.86196295     0.16130
O1696       O  0.01128858  0.91814340  0.85809647    -0.60790
H1697       H  0.04264343  0.85992979  0.96330118     0.16150
O1698       O  0.99236892  0.81772931  0.96668988    -0.60890
H1699       H  0.00219815  0.79647368  0.95595684     0.43140
H1700       H  0.02192456  0.90655484  0.83641119     0.43100
C1701       C  0.88260979  0.85601009  0.78383450    -0.05960
C1702       C  0.88247208  0.83128721  0.75541329    -0.33390
C1703       C  0.88200493  0.84120479  0.71780483     0.35860
C1704       C  0.88209532  0.87649586  0.70799509    -0.06320
C1705       C  0.88552750  0.90103528  0.73636561    -0.33290
C1706       C  0.88559890  0.89112178  0.77397477     0.35760
H1707       H  0.88070920  0.80419026  0.76226938     0.16130
O1708       O  0.88076618  0.81611252  0.69093341    -0.60790
H1709       H  0.88630828  0.92819561  0.72960189     0.16150
O1710       O  0.88799789  0.91608097  0.80089514    -0.60890
H1711       H  0.86529469  0.92634860  0.80277652     0.43140
H1712       H  0.85701364  0.80858776  0.69026454     0.43100
C1713       C  0.77851352  0.86572557  0.97496743    -0.05960
C1714       C  0.76333295  0.83912637  0.99458304    -0.33390
C1715       C  0.73175805  0.84388079  0.00936669     0.35860
C1716       C  0.71610524  0.87628383  0.00619508    -0.06320
C1717       C  0.73045378  0.90240734  0.98476142    -0.33290
C1718       C  0.76172882  0.89698262  0.96836838     0.35760
H1719       H  0.77547654  0.81428435  0.99720014     0.16130
O1720       O  0.71650131  0.81691288  0.02751771    -0.60790
H1721       H  0.71800561  0.92701052  0.98167399     0.16150
O1722       O  0.77512840  0.92131923  0.94472346    -0.60890
H1723       H  0.77633130  0.94294128  0.95933905     0.43140
H1724       H  0.70168716  0.80629408  0.00861102     0.43100
C1725       C  0.53434794  0.63246556  0.91627473    -0.05960
C1726       C  0.51371596  0.63346715  0.88450421    -0.33390
C1727       C  0.48412281  0.61370977  0.88265141     0.35860
C1728       C  0.47486168  0.59187417  0.91255911    -0.06320
C1729       C  0.49568797  0.59045235  0.94390688    -0.33290
C1730       C  0.52501175  0.61019403  0.94596225     0.35760
H1731       H  0.52030996  0.64992219  0.86114343     0.16130
O1732       O  0.46383002  0.61699804  0.85207393    -0.60790
H1733       H  0.48895164  0.57415149  0.96736856     0.16150
O1734       O  0.54483052  0.60653563  0.97687779    -0.60890
H1735       H  0.53550579  0.62278869  0.99555024     0.43140
H1736       H  0.44698012  0.63462249  0.85912740     0.43100
C1737       C  0.62628822  0.62434084  0.78562638    -0.05960
C1738       C  0.63689757  0.59098141  0.77553378    -0.33390
C1739       C  0.63687742  0.58014143  0.73838014     0.35860
C1740       C  0.62561153  0.60242523  0.71025958    -0.06320
C1741       C  0.61330708  0.63506514  0.72021834    -0.33290
C1742       C  0.61342655  0.64605386  0.75759106     0.35760
H1743       H  0.64691063  0.57352661  0.79626664     0.16130
O1744       O  0.65011494  0.54856679  0.72963833    -0.60790
H1745       H  0.60450567  0.65249699  0.69876823     0.16150
O1746       O  0.60143828  0.67814313  0.76617049    -0.60890
H1747       H  0.62042581  0.69404709  0.76135626     0.43140
H1748       H  0.67412723  0.55293182  0.72400359     0.43100
C1749       C  0.72332738  0.72028415  0.86320365    -0.05960
C1750       C  0.72069024  0.75647550  0.86355985    -0.33390
C1751       C  0.74936509  0.77798176  0.86317940     0.35860
C1752       C  0.78207780  0.76380058  0.86326082    -0.06320
C1753       C  0.78469549  0.72763066  0.86257594    -0.33290
C1754       C  0.75605442  0.70614795  0.86213116     0.35760
H1755       H  0.69614832  0.76832787  0.86481143     0.16130
O1756       O  0.74492043  0.81289570  0.86512367    -0.60790
H1757       H  0.80923377  0.71573708  0.86301586     0.16150
O1758       O  0.76057791  0.67120525  0.86298865    -0.60890
H1759       H  0.76252579  0.66421855  0.83644016     0.43140
H1760       H  0.74292930  0.82061397  0.83881975     0.43100
C1761       C  0.63385387  0.54492945  0.95608299    -0.05960
C1762       C  0.62960596  0.55242975  0.99434365    -0.33390
C1763       C  0.62480023  0.52669490  0.02083627     0.35860
C1764       C  0.62264567  0.99237010  0.00940706    -0.06320
C1765       C  0.62683201  0.98450835  0.97103785    -0.33290
C1766       C  0.63258938  0.51059690  0.94442823     0.35760
H1767       H  0.63007326  0.57869042  0.00418548     0.16130
O1768       O  0.62100171  0.53563702  0.05767481    -0.60790
H1769       H  0.62580256  0.95805269  0.96166569     0.16150
O1770       O  0.63597438  0.50237545  0.90738082    -0.60890
H1771       H  0.61295492  0.00343339  0.89714852     0.43140
H1772       H  0.64413008  0.53820483  0.06729079     0.43100
C1773       C  0.62488028  0.78794958  0.04894704    -0.05960
C1774       C  0.65135941  0.76441363  0.04854558    -0.33390
C1775       C  0.65307332  0.73888482  0.02093314     0.35860
C1776       C  0.62788489  0.73653763  0.99327823    -0.06320
C1777       C  0.60016902  0.75833704  0.99558354    -0.33290
C1778       C  0.59826574  0.78349011  0.02338768     0.35760
H1779       H  0.67239433  0.76792408  0.06716185     0.16130
O1780       O  0.68045842  0.71756910  0.02004420    -0.60790
H1781       H  0.58007000  0.75619772  0.97549646     0.16150
O1782       O  0.57197121  0.80621916  0.02284519    -0.60890
H1783       H  0.55238804  0.79307152  0.03236418     0.43140
H1784       H  0.69659746  0.72880484  0.00272088     0.43100
C1785       C  0.97178090  0.59870290  0.09694205    -0.05960
C1786       C  0.00035813  0.57815930  0.10010367    -0.33390
C1787       C  0.03217490  0.59331404  0.09882959     0.35860
C1788       C  0.03545484  0.62917334  0.09370254    -0.06320
C1789       C  0.00693967  0.64992160  0.09470770    -0.33290
C1790       C  0.97519526  0.63494056  0.09647075     0.35760
H1791       H  0.99811597  0.55040237  0.10117036     0.16130
O1792       O  0.05996896  0.57280817  0.10151489    -0.60790
H1793       H  0.00918050  0.67758914  0.09194143     0.16150
O1794       O  0.94754627  0.65588930  0.09518903    -0.60890
H1795       H  0.93856479  0.65622338  0.12107747     0.43140
H1796       H  0.06802330  0.57578323  0.12746445     0.43100
C1797       C  0.87087626  0.60737948  0.20748930    -0.05960
C1798       C  0.89313347  0.59162026  0.23275117    -0.33390
C1799       C  0.89463038  0.60235268  0.27024109     0.35860
C1800       C  0.87424802  0.62953995  0.28262496    -0.06320
C1801       C  0.85301942  0.64599489  0.25741608    -0.33290
C1802       C  0.85111141  0.63529195  0.22032701     0.35760
H1803       H  0.90870859  0.57034607  0.22376007     0.16130
O1804       O  0.91588339  0.58610406  0.29449260    -0.60790
H1805       H  0.83680450  0.66661510  0.26694474     0.16150
O1806       O  0.82860654  0.65151115  0.19746609    -0.60890
H1807       H  0.84116845  0.67097770  0.18617684     0.43140
H1808       H  0.90232021  0.56754091  0.30613871     0.43100
C1809       C  0.72147396  0.96515885  0.12898131    -0.05960
C1810       C  0.75432014  0.95181062  0.12858040    -0.33390
C1811       C  0.78267320  0.97356410  0.12770756     0.35860
C1812       C  0.77890900  0.50976249  0.12667076    -0.06320
C1813       C  0.74612812  0.52307705  0.12804267    -0.33290
C1814       C  0.71784485  0.50142757  0.12947295     0.35760
H1815       H  0.75817381  0.92424474  0.12790991     0.16130
O1816       O  0.81387970  0.95892353  0.12567490    -0.60790
H1817       H  0.74221229  0.55063770  0.12725030     0.16150
O1818       O  0.68669987  0.51631343  0.12942963    -0.60890
H1819       H  0.68091429  0.51970022  0.15614836     0.43140
H1820       H  0.82070537  0.95540869  0.15199020     0.43100
C1821       C  0.87438436  0.94004469  0.95033195    -0.05960
C1822       C  0.85121473  0.94299971  0.97984624    -0.33390
C1823       C  0.85668403  0.96546093  0.00967526     0.35860
C1824       C  0.88593390  0.98566373  0.01059608    -0.06320
C1825       C  0.90870111  0.98364116  0.98042444    -0.33290
C1826       C  0.90346641  0.96047220  0.95094756     0.35760
H1827       H  0.82987607  0.92601054  0.98131270     0.16130
O1828       O  0.83331241  0.96721109  0.03788550    -0.60790
H1829       H  0.93101083  0.49954230  0.98010285     0.16150
O1830       O  0.92716427  0.95746822  0.92322234    -0.60890
H1831       H  0.94377478  0.94074417  0.93286751     0.43140
H1832       H  0.81809488  0.98625991  0.03076453     0.43100
C1833       C  0.87225174  0.68754713  0.04029163    -0.05960
C1834       C  0.90057053  0.69217174  0.01707149    -0.33390
C1835       C  0.90260576  0.71952891  0.99175539     0.35860
C1836       C  0.87626011  0.74332645  0.98948173    -0.06320
C1837       C  0.84914189  0.74041603  0.01482051    -0.33290
C1838       C  0.84680097  0.71248869  0.03975611     0.35760
H1839       H  0.92035651  0.67306663  0.01687090     0.16130
O1840       O  0.93015002  0.72227697  0.96882481    -0.60790
H1841       H  0.82887767  0.75894226  0.01401023     0.16150
O1842       O  0.81856314  0.70855852  0.06138396    -0.60890
H1843       H  0.80285716  0.69495098  0.04591696     0.43140
H1844       H  0.94541140  0.73846766  0.98170856     0.43100
C1845       C  0.79203334  0.58545600  0.99393670    -0.05960
C1846       C  0.76216391  0.56822170  0.00225004    -0.33390
C1847       C  0.73168249  0.58212865  0.99121166     0.35860
C1848       C  0.73126969  0.61336032  0.97140113    -0.06320
C1849       C  0.76150491  0.62939086  0.96130424    -0.33290
C1850       C  0.79182809  0.61546635  0.97220163     0.35760
H1851       H  0.76231844  0.54573270  0.02021448     0.16130
O1852       O  0.70267409  0.56484928  0.99952033    -0.60790
H1853       H  0.76156160  0.65314387  0.94538079     0.16150
O1854       O  0.82073944  0.63381581  0.96595285    -0.60890
H1855       H  0.83169706  0.62247851  0.94431673     0.43140
H1856       H  0.69688271  0.57173646  0.02542724     0.43100
loop_ 
_geom_bond_atom_site_label_1 
_geom_bond_atom_site_label_2 
_geom_bond_distance 
_geom_bond_site_symmetry_2 
_ccdc_geom_bond_type 
O1           C16   1.261       .  A
O1           Al9   1.841       .  S
C2           O12   1.263       .  A
C2            O3   1.265       .  A
C2          C884   1.508       .  S
O3           Al5   1.928       .  S
O4            C6   1.256       .  A
O4           Al5   1.930       .  S
Al5          O13   1.920       .  S
Al5          O15   1.972       .  S
Al5          O14   1.779       .  S
C6           O19   1.244       .  A
C6         C1824   1.482   1_545  S
O7           C17   1.267       .  A
O7           Al9   1.888       .  S
O8           C21   1.266       .  A
O8          Al18   1.955       .  S
Al9          O22   1.860       .  S
Al9          O19   1.887       .  S
Al9          O14   1.791       .  S
O10          C17   1.266       .  A
O10         Al18   1.872       .  S
O11          C20   1.257       .  A
O11         Al18   1.879       .  S
O12         Al18   1.915       .  S
O13          C20   1.263       .  A
O14         Al18   1.773       .  S
O15          C16   1.281       .  A
C16         C857   1.469       .  S
C17         C917   1.428   1_554  S
C20         C869   1.492       .  S
C21          O22   1.247       .  A
C21         C905   1.478       .  S
O23          C38   1.247       .  A
O23         Al31   1.860       .  S
C24          O34   1.270       .  A
C24          O25   1.277       .  A
C24         C821   1.519       .  S
O25         Al27   1.967       .  S
O26          C28   1.249       .  A
O26         Al27   1.835       .  S
Al27         O35   1.863       .  S
Al27         O37   2.010       .  S
Al27         O36   1.759       .  S
C28          O41   1.268       .  A
C28         C920   1.451       .  S
O29          C39   1.253       .  A
O29         Al31   1.851       .  S
O30          C43   1.267       .  A
O30         Al40   1.935       .  S
Al31         O44   1.923       .  S
Al31         O41   1.953       .  S
Al31         O36   1.758       .  S
O32          C39   1.281       .  A
O32         Al40   1.985       .  S
O33          C42   1.276       .  A
O33         Al40   1.969       .  S
O34         Al40   1.932       .  S
O35          C42   1.258       .  A
O36         Al40   1.760       .  S
O37          C38   1.277       .  A
C38         C833   1.478       .  S
C39         C848   1.479       .  S
C42         C809   1.489       .  S
C43          O44   1.265       .  A
C43         C797   1.500       .  S
O45          C60   1.251       .  A
O45         Al53   1.876       .  S
C46          O56   1.270       .  A
C46          O47   1.278       .  A
C46         C824   1.518       .  S
O47         Al49   1.972       .  S
O48          C50   1.248       .  A
O48         Al49   1.822       .  S
Al49         O57   1.870       .  S
Al49         O59   1.981       .  S
Al49         O58   1.766       .  S
C50          O63   1.265       .  A
C50         C785   1.422       .  S
O51          C61   1.255       .  A
O51         Al53   1.871       .  S
O52          C65   1.265       .  A
O52         Al62   1.924       .  S
Al53         O66   1.924       .  S
Al53         O63   1.923       .  S
Al53         O58   1.768       .  S
O54          C61   1.276       .  A
O54         Al62   1.973       .  S
O55          C64   1.272       .  A
O55         Al62   1.953       .  S
O56         Al62   1.927       .  S
O57          C64   1.257       .  A
O58         Al62   1.763       .  S
O59          C60   1.273       .  A
C60         C893   1.475       .  S
C61         C908   1.483       .  S
C64         C773   1.482       .  S
C65          O66   1.265       .  A
C65         C761   1.484       .  S
O67          C82   1.260       .  A
O67         Al75   1.848       .  S
C68          O78   1.268       .  A
C68          O69   1.264       .  A
C68         C881   1.510       .  S
O69         Al71   1.912       .  S
O70          C72   1.253       .  A
O70         Al71   1.911       .  S
Al71         O79   1.906       .  S
Al71         O81   1.949       .  S
Al71         O80   1.785       .  S
C72          O85   1.241       .  A
C72         C836   1.480       .  S
O73          C83   1.268       .  A
O73         Al75   1.892       .  S
O74          C87   1.266       .  A
O74         Al84   1.956       .  S
Al75         O88   1.839       .  S
Al75         O85   1.866       .  S
Al75         O80   1.793       .  S
O76          C83   1.260       .  A
O76         Al84   1.848       .  S
O77          C86   1.252       .  A
O77         Al84   1.869       .  S
O78         Al84   1.933       .  S
O79          C86   1.257       .  A
O80         Al84   1.781       .  S
O81          C82   1.276       .  A
C82         C737   1.467       .  S
C83         C788   1.436       .  S
C86         C752   1.473       .  S
C87          O88   1.243       .  A
C87         C845   1.472       .  S
O89         C104   1.270       .  A
O89         Al97   1.863       .  S
C90         O100   1.261       .  A
C90          O91   1.265       .  A
C90         C689   1.501       .  S
O91         Al93   1.922       .  S
O92          C94   1.253       .  A
O92         Al93   1.933       .  S
Al93        O101   1.909       .  S
Al93        O103   1.973       .  S
Al93        O102   1.771       .  S
C94         O107   1.238       .  A
C94         C713   1.471       .  S
O95         C105   1.272       .  A
O95         Al97   1.887       .  S
O96         C109   1.262       .  A
O96        Al106   1.958       .  S
Al97        O110   1.838       .  S
Al97        O107   1.865       .  S
Al97        O102   1.779       .  S
O98         C105   1.273       .  A
O98        Al106   1.892       .  S
O99         C108   1.257       .  A
O99        Al106   1.887       .  S
O100       Al106   1.903       .  S
O101        C108   1.261       .  A
O102       Al106   1.772       .  S
O103        C104   1.287       .  A
C104        C677   1.473       .  S
C105        C725   1.442       .  S
C108        C872   1.468       .  S
C109        O110   1.240       .  A
C109        C701   1.475       .  S
O111        C126   1.254       .  A
O111       Al119   1.875       .  S
C112        O122   1.270       .  A
C112        O113   1.276       .  A
C112        C641   1.519       .  S
O113       Al115   1.969       .  S
O114        C116   1.254       .  A
O114       Al115   1.852       .  S
Al115       O123   1.882       .  S
Al115       O125   1.982       .  S
Al115       O124   1.761       .  S
C116        O129   1.265       .  A
C116        C728   1.461       .  S
O117        C127   1.257       .  A
O117       Al119   1.869       .  S
O118        C131   1.267       .  A
O118       Al128   1.933       .  S
Al119       O132   1.921       .  S
Al119       O129   1.927       .  S
Al119       O124   1.770       .  S
O120        C127   1.277       .  A
O120       Al128   1.967       .  S
O121        C130   1.270       .  A
O121       Al128   1.945       .  S
O122       Al128   1.930       .  S
O123        C130   1.258       .  A
O124       Al128   1.763       .  S
O125        C126   1.275       .  A
C126        C668   1.481       .  S
C127       C1584   1.478   1_545  S
C130        C812   1.475       .  S
C131        O132   1.264       .  A
C131        C632   1.490       .  S
O133        C148   1.268       .  A
O133       Al141   1.860       .  S
C134        O144   1.263       .  A
C134        O135   1.264       .  A
C134        C692   1.502       .  S
O135       Al137   1.912       .  S
O136        C138   1.255       .  A
O136       Al137   1.940       .  S
Al137       O145   1.909       .  S
Al137       O147   1.967       .  S
Al137       O146   1.770       .  S
C138        O151   1.242       .  A
C138        C665   1.476       .  S
O139        C149   1.275       .  A
O139       Al141   1.893       .  S
O140        C153   1.261       .  A
O140       Al150   1.947       .  S
Al141       O154   1.863       .  S
Al141       O151   1.887       .  S
Al141       O146   1.781       .  S
O142        C149   1.272       .  A
O142       Al150   1.885       .  S
O143        C152   1.256       .  A
O143       Al150   1.876       .  S
O144       Al150   1.914       .  S
O145        C152   1.261       .  A
O146       Al150   1.771       .  S
O147        C148   1.284       .  A
C148        C605   1.470       .  S
C149        C617   1.449       .  S
C152        C749   1.474       .  S
C153        O154   1.244       .  A
C153        C653   1.471       .  S
O155        C170   1.249       .  A
O155       Al163   1.862       .  S
C156        O166   1.267       .  A
C156        O157   1.277       .  A
C156        C644   1.517       .  S
O157       Al159   1.971       .  S
O158        C160   1.251       .  A
O158       Al159   1.841       .  S
Al159       O167   1.872       .  S
Al159       O169   2.004       .  S
Al159       O168   1.763       .  S
C160        O173   1.266       .  A
C160        C620   1.458       .  S
O161        C171   1.256       .  A
O161       Al163   1.851       .  S
O162        C175   1.266       .  A
O162       Al172   1.945       .  S
Al163       O176   1.912       .  S
Al163       O173   1.942       .  S
Al163       O168   1.769       .  S
O164        C171   1.279       .  A
O164       Al172   1.965       .  S
O165        C174   1.271       .  A
O165       Al172   1.946       .  S
O166       Al172   1.919       .  S
O167        C174   1.257       .  A
O168       Al172   1.762       .  S
O169        C170   1.278       .  A
C170        C716   1.485       .  S
C171        C704   1.468       .  S
C174        C776   1.484       .  S
C175        O176   1.260       .  A
C175        C593   1.502       .  S
O177        C192   1.271       .  A
O177       Al185   1.877       .  S
C178        O188   1.264       .  A
C178        O179   1.262       .  A
C178        C545   1.498       .  S
O179       Al181   1.903       .  S
O180        C182   1.254       .  A
O180       Al181   1.926       .  S
Al181       O189   1.909       .  S
Al181       O191   1.948       .  S
Al181       O190   1.774       .  S
C182        O195   1.241       .  A
C182        C572   1.476       .  S
O183        C193   1.273       .  A
O183       Al185   1.891       .  S
O184        C197   1.261       .  A
O184       Al194   1.952       .  S
Al185       O198   1.851       .  S
Al185       O195   1.872       .  S
Al185       O190   1.780       .  S
O186        C193   1.271       .  A
O186       Al194   1.885       .  S
O187        C196   1.256       .  A
O187       Al194   1.879       .  S
O188       Al194   1.919       .  S
O189        C196   1.261       .  A
O190       Al194   1.774       .  S
O191        C192   1.280       .  A
C192        C860   1.468       .  S
C193        C581   1.449       .  S
C196        C533   1.478       .  S
C197        O198   1.240       .  A
C197        C560   1.465       .  S
O199        C214   1.253       .  A
O199       Al207   1.867       .  S
C200        O210   1.270       .  A
C200        O201   1.278       .  A
C200        C500   1.521       .  S
O201       Al203   1.974       .  S
O202        C204   1.252       .  A
O202       Al203   1.849       .  S
Al203       O211   1.876       .  S
Al203       O213   1.990       .  S
Al203       O212   1.762       .  S
C204        O217   1.265       .  A
C204        C584   1.456       .  S
O205        C215   1.257       .  A
O205       Al207   1.866       .  S
O206        C219   1.266       .  A
O206       Al216   1.934       .  S
Al207       O220   1.921       .  S
Al207       O217   1.928       .  S
Al207       O212   1.769       .  S
O208        C215   1.278       .  A
O208       Al216   1.970       .  S
O209        C218   1.269       .  A
O209       Al216   1.947       .  S
O210       Al216   1.925       .  S
O211        C218   1.255       .  A
O212       Al216   1.763       .  S
O213        C214   1.277       .  A
C214        C524   1.487       .  S
C215       C1440   1.479   1_545  S
C218        C488   1.465       .  S
C219        O220   1.263       .  A
C219        C800   1.489       .  S
O221        C236   1.249       .  A
O221       Al229   1.863       .  S
C222        O232   1.268       .  A
C222        O223   1.276       .  A
C222        C497   1.515       .  S
O223       Al225   1.967       .  S
O224        C226   1.249       .  A
O224       Al225   1.835       .  S
Al225       O233   1.871       .  S
Al225       O235   2.007       .  S
Al225       O234   1.761       .  S
C226        O239   1.265       .  A
C226        C476   1.444       .  S
O227        C237   1.251       .  A
O227       Al229   1.843       .  S
O228        C241   1.266       .  A
O228       Al238   1.931       .  S
Al229       O242   1.917       .  S
Al229       O239   1.940       .  S
Al229       O234   1.765       .  S
O230        C237   1.277       .  A
O230       Al238   1.979       .  S
O231        C240   1.274       .  A
O231       Al238   1.961       .  S
O232       Al238   1.923       .  S
O233        C240   1.260       .  A
O234       Al238   1.766       .  S
O235        C236   1.278       .  A
C236        C569   1.489       .  S
C237        C557   1.465       .  S
C240        C461   1.489       .  S
C241        O242   1.264       .  A
C241        C764   1.494       .  S
O243        C258   1.264       .  A
O243       Al251   1.850       .  S
C244        O254   1.264       .  A
C244        O245   1.264       .  A
C244        C548   1.500       .  S
O245       Al247   1.911       .  S
O246        C248   1.254       .  A
O246       Al247   1.939       .  S
Al247       O255   1.906       .  S
Al247       O257   1.964       .  S
Al247       O256   1.776       .  S
C248        O261   1.241       .  A
C248        C521   1.473       .  S
O249        C259   1.272       .  A
O249       Al251   1.886       .  S
O250        C263   1.263       .  A
O250       Al260   1.956       .  S
Al251       O264   1.850       .  S
Al251       O261   1.881       .  S
Al251       O256   1.784       .  S
O252        C259   1.269       .  A
O252       Al260   1.882       .  S
O253        C262   1.256       .  A
O253       Al260   1.879       .  S
O254       Al260   1.914       .  S
O255        C262   1.260       .  A
O256       Al260   1.772       .  S
O257        C258   1.282       .  A
C258        C740   1.467       .  S
C259        C473   1.429       .  S
C262        C452   1.474       .  S
C263        O264   1.242       .  A
C263        C509   1.474       .  S
O265        C280   1.268       .  A
O265       Al273   1.862       .  S
C266        O276   1.264       .  A
C266        O267   1.264       .  A
C266        C401   1.507       .  S
O267       Al269   1.916       .  S
O268        C270   1.253       .  A
O268       Al269   1.933       .  S
Al269       O277   1.913       .  S
Al269       O279   1.969       .  S
Al269       O278   1.772       .  S
C270        O283   1.242       .  A
C270       C1353   1.476   1_545  S
O271        C281   1.275       .  A
O271       Al273   1.895       .  S
O272        C285   1.262       .  A
O272       Al282   1.949       .  S
Al273       O286   1.868       .  S
Al273       O283   1.891       .  S
Al273       O278   1.784       .  S
O274        C281   1.269       .  A
O274       Al282   1.874       .  S
O275        C284   1.255       .  A
O275       Al282   1.875       .  S
O276       Al282   1.922       .  S
O277        C284   1.261       .  A
O278       Al282   1.772       .  S
O279        C280   1.285       .  A
C280        C680   1.472       .  S
C281        C437   1.447       .  S
C284        C536   1.474       .  S
C285        O286   1.244       .  A
C285        C413   1.470       .  S
O287        C302   1.249       .  A
O287       Al295   1.861       .  S
C288        O298   1.270       .  A
C288        O289   1.278       .  A
C288        C368   1.518       .  S
O289       Al291   1.969       .  S
O290        C292   1.248       .  A
O290       Al291   1.844       .  S
Al291       O299   1.866       .  S
Al291       O301   2.013       .  S
Al291       O300   1.761       .  S
C292        O305   1.264       .  A
C292        C440   1.456       .  S
O293        C303   1.251       .  A
O293       Al295   1.840       .  S
O294        C307   1.267       .  A
O294       Al304   1.937       .  S
Al295       O308   1.922       .  S
Al295       O305   1.933       .  S
Al295       O300   1.756       .  S
O296        C303   1.279       .  A
O296       Al304   1.985       .  S
O297        C306   1.272       .  A
O297       Al304   1.955       .  S
O298       Al304   1.926       .  S
O299        C306   1.257       .  A
O300       Al304   1.765       .  S
O301        C302   1.279       .  A
C302        C392   1.486       .  S
C303        C377   1.474       .  S
C306        C485   1.469       .  S
C307        O308   1.265       .  A
C307        C629   1.500       .  S
O309        C324   1.254       .  A
O309       Al317   1.876       .  S
C310        O320   1.271       .  A
C310        O311   1.277       .  A
C310        C365   1.517       .  S
O311       Al313   1.967       .  S
O312        C314   1.252       .  A
O312       Al313   1.841       .  S
Al313       O321   1.885       .  S
Al313       O323   1.980       .  S
Al313       O322   1.760       .  S
C314        O327   1.265       .  A
C314        C356   1.457       .  S
O315        C325   1.256       .  A
O315       Al317   1.872       .  S
O316        C329   1.268       .  A
O316       Al326   1.936       .  S
Al317       O330   1.918       .  S
Al317       O327   1.926       .  S
Al317       O322   1.769       .  S
O318        C325   1.276       .  A
O318       Al326   1.977       .  S
O319        C328   1.271       .  A
O319       Al326   1.952       .  S
O320       Al326   1.931       .  S
O321        C328   1.258       .  A
O322       Al326   1.765       .  S
O323        C324   1.274       .  A
C324        C428   1.480       .  S
C325        C416   1.476       .  S
C328        C464   1.475       .  S
C329        O330   1.265       .  A
C329        C596   1.495       .  S
O331        C346   1.266       .  A
O331       Al339   1.855       .  S
C332        O342   1.264       .  A
C332        O333   1.266       .  A
C332        C404   1.507       .  S
O333       Al335   1.927       .  S
O334        C336   1.255       .  A
O334       Al335   1.922       .  S
Al335       O343   1.906       .  S
Al335       O345   1.971       .  S
Al335       O344   1.770       .  S
C336        O349   1.239       .  A
C336        C389   1.476       .  S
O337        C347   1.269       .  A
O337       Al339   1.878       .  S
O338        C351   1.262       .  A
O338       Al348   1.951       .  S
Al339       O352   1.846       .  S
Al339       O349   1.868       .  S
Al339       O344   1.785       .  S
O340        C347   1.271       .  A
O340       Al348   1.889       .  S
O341        C350   1.256       .  A
O341       Al348   1.880       .  S
O342       Al348   1.912       .  S
O343        C350   1.260       .  A
O344       Al348   1.772       .  S
O345        C346   1.285       .  A
C346        C608   1.472       .  S
C347        C353   1.434       .  S
C350        C449   1.477       .  S
C351        O352   1.241       .  A
C351        C380   1.464       .  S
C353        C354   1.399       .  A
C353        C358   1.397       .  A
C354        C355   1.389       .  A
C354        H359   1.085       .  S
C355        C356   1.408       .  A
C355        O360   1.372       .  S
C356        C357   1.407       .  A
C357        C358   1.383       .  A
C357        H361   1.084       .  S
C358        O362   1.373       .  S
O360        H364   0.992       .  S
O362        H363   0.991       .  S
C365        C366   1.410       .  A
C365        C370   1.417       .  A
C366        C367   1.415       .  A
C366        H371   1.083       .  S
C367        C368   1.417       .  A
C367        O372   1.370       .  S
C368        C369   1.411       .  A
C369        C370   1.415       .  A
C369        H373   1.083       .  S
C370        O374   1.371       .  S
O372        H376   0.991       .  S
O374        H375   0.992       .  S
C377        C378   1.412       .  A
C377        C382   1.401       .  A
C378        C379   1.399       .  A
C378        H383   1.084       .  S
C379        C380   1.400       .  A
C379        O384   1.371       .  S
C380        C381   1.410       .  A
C381        C382   1.397       .  A
C381        H385   1.084       .  S
C382        O386   1.371       .  S
O384        H388   0.992       .  S
O386        H387   0.992       .  S
C389        C394   1.419       .  A
C389       C1318   1.387       .  A
C390        C391   1.389       .  A
C390       C1317   1.387   1_545  A
C390        H395   1.084       .  S
C391        C392   1.423       .  A
C391        O396   1.369       .  S
C392        C393   1.399       .  A
C393       C1322   1.409   1_545  A
C393       H1325   1.083       .  S
C394       C1321   1.409       .  A
C394        O398   1.371       .  S
O396        H400   0.992       .  S
H397       C1321   1.083       .  S
O398        H399   0.991       .  S
C401        C402   1.410       .  A
C401       C1334   1.415   1_545  A
C402        C403   1.410       .  A
C402        H407   1.083       .  S
C403       C1332   1.415   1_545  A
C403        O408   1.371       .  S
C404        C405   1.410       .  A
C404       C1331   1.415       .  A
C405        C406   1.408       .  A
C405        H409   1.083       .  S
C406       C1329   1.415       .  A
C406        O410   1.371       .  S
O408        H412   0.992       .  S
O410        H411   0.992       .  S
C413        C414   1.406       .  A
C413        C418   1.408       .  A
C414        C415   1.405       .  A
C414        H419   1.084       .  S
C415        C416   1.406       .  A
C415        O420   1.371       .  S
C416        C417   1.404       .  A
C417        C418   1.402       .  A
C417        H421   1.084       .  S
C418        O422   1.372       .  S
O420        H424   0.992       .  S
O422        H423   0.991       .  S
C425       C1198   1.476       .  S
C425        C426   1.402       .  A
C425        C430   1.408       .  A
C426        C427   1.404       .  A
C426        H431   1.084       .  S
C427        C428   1.412       .  A
C427        O432   1.373       .  S
C428        C429   1.406       .  A
C429        C430   1.404       .  A
C429        H433   1.083       .  S
C430       O1362   1.372       .  S
O432        H436   0.992       .  S
O434       C1358   1.372       .  S
O434        H435   0.992       .  S
C437        C438   1.392       .  A
C437        C442   1.410       .  A
C438        C439   1.388       .  A
C438        H443   1.084       .  S
C439        C440   1.416       .  A
C439        O444   1.372       .  S
C440        C441   1.396       .  A
C441        C442   1.386       .  A
C441        H445   1.083       .  S
C442        O446   1.373       .  S
O444        H448   0.991       .  S
O446        H447   0.992       .  S
C449        C450   1.405       .  A
C449        C454   1.408       .  A
C450        C451   1.400       .  A
C450        H455   1.084       .  S
C451        C452   1.407       .  A
C451        O456   1.371       .  S
C452        C453   1.404       .  A
C453        C454   1.400       .  A
C453        H457   1.084       .  S
C454        O458   1.371       .  S
O456        H460   0.992       .  S
O458        H459   0.992       .  S
C461        C462   1.410       .  A
C461        C466   1.410       .  A
C462        C463   1.398       .  A
C462        H467   1.083       .  S
C463        C464   1.404       .  A
C463        O468   1.373       .  S
C464        C465   1.406       .  A
C465        C466   1.406       .  A
C465        H469   1.084       .  S
C466        O470   1.371       .  S
O468        H472   0.992       .  S
O470        H471   0.992       .  S
C473        C474   1.397       .  A
C473        C478   1.401   1_554  A
C474        C475   1.392       .  A
C474        H479   1.084       .  S
C475        C476   1.406   1_554  A
C475        O480   1.371       .  S
C476        C477   1.400       .  A
C477        C478   1.381       .  A
C477        H481   1.085       .  S
C478        O482   1.373       .  S
O480        H484   0.992       .  S
O482        H483   0.991       .  S
C485        C486   1.402       .  A
C485        C490   1.407       .  A
C486        C487   1.392       .  A
C486        H491   1.084       .  S
C487        C488   1.404       .  A
C487        O492   1.373       .  S
C488        C489   1.405       .  A
C489        C490   1.408       .  A
C489        H493   1.083       .  S
C490        O494   1.371       .  S
O492        H496   0.992       .  S
O494        H495   0.991       .  S
C497        C502   1.415       .  A
C497       C1426   1.410       .  A
C498        C499   1.416       .  A
C498       C1425   1.410   1_545  A
C498        H503   1.083       .  S
C499        C500   1.417       .  A
C499        O504   1.370       .  S
C500       C1429   1.412   1_545  A
C501        C502   1.415       .  A
C501       C1428   1.412       .  A
C501        H505   1.083       .  S
C502        O506   1.371       .  S
O504        H508   0.990       .  S
O506        H507   0.992       .  S
C509        C510   1.400       .  A
C509        C514   1.415       .  A
C510       C1439   1.406       .  A
C510        H515   1.084       .  S
C511       C1438   1.406       .  A
C511       C1440   1.417   1_554  A
C511        O516   1.372   1_565  S
C512       C1143   1.479       .  S
C512        C513   1.396       .  A
C512       C1439   1.417   1_556  A
C513        C514   1.395   1_556  A
C513        H517   1.084       .  S
C514        O518   1.373       .  S
O516        H520   0.992       .  S
O518        H519   0.992   1_554  S
C521        C522   1.398   1_554  A
C521        C526   1.409   1_554  A
C522        C523   1.400       .  A
C522        H527   1.084   1_556  S
C523        C524   1.419       .  A
C523        O528   1.373       .  S
C524        C525   1.406       .  A
C525        C526   1.405       .  A
C525        H529   1.084       .  S
C526        O530   1.372       .  S
O528        H532   0.991       .  S
O530        H531   0.992       .  S
C533        C534   1.406       .  A
C533        C538   1.408       .  A
C534        C535   1.400       .  A
C534        H539   1.084       .  S
C535        C536   1.407       .  A
C535        O540   1.372       .  S
C536        C537   1.404       .  A
C537        C538   1.400       .  A
C537        H541   1.084       .  S
C538        O542   1.371       .  S
O540        H544   0.992       .  S
O542        H543   0.992       .  S
C545        C546   1.408       .  A
C545        C550   1.412       .  A
C546        C547   1.405       .  A
C546        H551   1.083       .  S
C547        C548   1.414       .  A
C547        O552   1.372       .  S
C548        C549   1.409       .  A
C549        C550   1.411       .  A
C549        H553   1.083       .  S
C550        O554   1.374       .  S
O552        H556   0.991       .  S
O554        H555   0.991       .  S
C557        C562   1.405   1_556  A
C557       C1486   1.402       .  A
C558        C559   1.399   1_556  A
C558       C1485   1.402   1_545  A
C558       H1491   1.084       .  S
C559        C560   1.409       .  A
C559        O564   1.372       .  S
C560        C561   1.404       .  A
C561       C1490   1.402       .  A
C561        H565   1.079       .  S
C562       C1489   1.402       .  A
C562        O566   1.372       .  S
H563       C1486   1.084       .  S
O564        H568   0.991       .  S
O566        H567   0.992   1_554  S
C569        C570   1.400       .  A
C569        C574   1.424       .  A
C570        C571   1.408       .  A
C570        H575   1.083       .  S
C571        C572   1.417   1_556  A
C571        O576   1.371       .  S
C572        C573   1.389       .  A
C573        C574   1.393   1_554  A
C573        H577   1.084       .  S
C574        O578   1.370   1_556  S
O576        H580   0.992       .  S
O578        H579   0.992       .  S
C581        C582   1.393   1_554  A
C581        C586   1.409       .  A
C582        C583   1.389       .  A
C582        H587   1.084       .  S
C583        C584   1.414       .  A
C583        O588   1.372       .  S
C584        C585   1.396   1_556  A
C585        C586   1.388       .  A
C585        H589   1.084       .  S
C586        O590   1.372       .  S
O588        H592   0.991       .  S
O590        H591   0.992       .  S
C593        C594   1.409       .  A
C593        C598   1.417       .  A
C594        C595   1.412   1_655  A
C594        H599   1.083       .  S
C595        C596   1.414       .  A
C595        O600   1.371       .  S
C596        C597   1.403       .  A
C597        C598   1.400   1_455  A
C597        H601   1.084       .  S
C598        O602   1.371       .  S
O600        H604   0.992       .  S
O602        H603   0.992       .  S
C605        C606   1.396       .  A
C605        C610   1.414       .  A
C606        C607   1.398       .  A
C606        H611   1.084       .  S
C607        C608   1.416       .  A
C607        O612   1.372       .  S
C608        C609   1.397       .  A
C609        C610   1.398       .  A
C609        H613   1.084       .  S
C610        O614   1.372       .  S
O612        H616   0.992       .  S
O614        H615   0.992       .  S
C617        C618   1.405       .  A
C617        C622   1.397       .  A
C618        C619   1.388       .  A
C618        H623   1.083       .  S
C619        C620   1.402       .  A
C619        O624   1.372       .  S
C620        C621   1.410       .  A
C621        C622   1.386       .  A
C621        H625   1.083       .  S
C622        O626   1.372       .  S
O624        H628   0.992       .  S
O626        H627   0.992       .  S
C629        C630   1.409       .  A
C629        C634   1.418       .  A
C630        C631   1.411       .  A
C630        H635   1.083       .  S
C631        C632   1.413       .  A
C631        O636   1.372       .  S
C632        C633   1.402       .  A
C633        C634   1.401       .  A
C633        H637   1.084       .  S
C634        O638   1.371       .  S
O636        H640   0.992       .  S
O638        H639   0.992       .  S
C641        C646   1.418       .  A
C641       C1570   1.412   1_545  A
C642        C643   1.416       .  A
C642       C1569   1.412       .  A
C642        H647   1.083       .  S
C643        C644   1.416       .  A
C643        O648   1.371       .  S
C644        C645   1.411       .  A
C645       C1574   1.415       .  A
C645        H649   1.083       .  S
C646       C1573   1.415       .  A
C646        O650   1.371       .  S
O648        H652   0.992       .  S
O650        H651   0.992       .  S
C653        C654   1.400       .  A
C653        C658   1.413       .  A
C654        C655   1.404       .  A
C654        H659   1.084       .  S
C655        C656   1.416       .  A
C655       O1588   1.372       .  S
C656       C1055   1.478       .  S
C656        C657   1.398       .  A
C657        C658   1.398       .  A
C657        H661   1.084       .  S
C658        O662   1.373       .  S
O660       C1583   1.372   1_545  S
O660       H1592   0.992       .  S
O662        H663   0.992       .  S
H664       O1588   0.992       .  S
C665        C666   1.403       .  A
C665        C670   1.407       .  A
C666        C667   1.403       .  A
C666        H671   1.084       .  S
C667        C668   1.411       .  A
C667        O672   1.373       .  S
C668        C669   1.406       .  A
C669        C670   1.404       .  A
C669        H673   1.083       .  S
C670        O674   1.372       .  S
O672        H676   0.992       .  S
O674        H675   0.992       .  S
C677        C678   1.409       .  A
C677        C682   1.403       .  A
C678        C679   1.400   1_655  A
C678        H683   1.084       .  S
C679        C680   1.402       .  A
C679        O684   1.371       .  S
C680        C681   1.408       .  A
C681        C682   1.399   1_455  A
C681        H685   1.084       .  S
C682        O686   1.371       .  S
O684        H688   0.992       .  S
O686        H687   0.992       .  S
C689        C690   1.408       .  A
C689        C694   1.416       .  A
C690        C691   1.408       .  A
C690        H695   1.083       .  S
C691        C692   1.416       .  A
C691        O696   1.371       .  S
C692        C693   1.407       .  A
C693        C694   1.404       .  A
C693        H697   1.083       .  S
C694        O698   1.371       .  S
O696        H700   0.992       .  S
O698        H699   0.992       .  S
C701        C702   1.411       .  A
C701        C706   1.403       .  A
C702        C703   1.391       .  A
C702        H707   1.085       .  S
C703       C1632   1.398   1_545  A
C703        O708   1.372       .  S
C704        C705   1.411       .  A
C704       C1631   1.398       .  A
C705       C1634   1.406       .  A
C705        H709   1.084       .  S
C706       C1633   1.406   1_545  A
C706       O1638   1.371       .  S
O708        H712   0.992       .  S
O710       C1634   1.371       .  S
O710        H711   0.992       .  S
C713        C714   1.412       .  A
C713        C718   1.395       .  A
C714        C715   1.405       .  A
C714        H719   1.083       .  S
C715        C716   1.403       .  A
C715        O720   1.371       .  S
C716        C717   1.417       .  A
C717        C718   1.394       .  A
C717        H721   1.083       .  S
C718        O722   1.372       .  S
O720        H724   0.992       .  S
O722        H723   0.992       .  S
C725        C726   1.401       .  A
C725        C730   1.399       .  A
C726        C727   1.389       .  A
C726        H731   1.085       .  S
C727        C728   1.408       .  A
C727        O732   1.372       .  S
C728        C729   1.408       .  A
C729        C730   1.386       .  A
C729        H733   1.084       .  S
C730        O734   1.372       .  S
O732        H736   0.992       .  S
O734        H735   0.992       .  S
C737        C738   1.394       .  A
C737        C742   1.415       .  A
C738        C739   1.401       .  A
C738        H743   1.084       .  S
C739        C740   1.415       .  A
C739        O744   1.375       .  S
C740        C741   1.394       .  A
C741        C742   1.396       .  A
C741        H745   1.084       .  S
C742        O746   1.372       .  S
O744        H748   0.991       .  S
O746        H747   0.992       .  S
C749        C750   1.401       .  A
C749        C754   1.411       .  A
C750        C751   1.400       .  A
C750        H755   1.084       .  S
C751        C752   1.410       .  A
C751        O756   1.373       .  S
C752        C753   1.401       .  A
C753        C754   1.400       .  A
C753        H757   1.084       .  S
C754        O758   1.371       .  S
O756        H760   0.992       .  S
O758        H759   0.991       .  S
C761        C762   1.408       .  A
C761        C766   1.405       .  A
C762        C763   1.410   1_655  A
C762        H767   1.084       .  S
C763        C764   1.411       .  A
C763        O768   1.371       .  S
C764        C765   1.409       .  A
C765        C766   1.400   1_455  A
C765        H769   1.082       .  S
C766        O770   1.372       .  S
O768        H772   0.992       .  S
O770        H771   0.992   1_655  S
C773        C774   1.401       .  A
C773        C778   1.414       .  A
C774        C775   1.400       .  A
C774        H779   1.084       .  S
C775        C776   1.416       .  A
C775        O780   1.372       .  S
C776        C777   1.402       .  A
C777        C778   1.400       .  A
C777        H781   1.083       .  S
C778        O782   1.373       .  S
O780        H784   0.992       .  S
O782        H783   0.992       .  S
C785        C786   1.386       .  A
C785        C790   1.408       .  A
C786        C787   1.376   1_556  A
C786        H791   1.085       .  S
C787        C788   1.411       .  A
C787        O792   1.373       .  S
C788        C789   1.393   1_554  A
C789        C790   1.392       .  A
C789        H793   1.084       .  S
C790        O794   1.374       .  S
O792        H796   0.992       .  S
O794        H795   0.992       .  S
C797        C798   1.409       .  A
C797        C802   1.418       .  A
C798        C799   1.410       .  A
C798        H803   1.083       .  S
C799        C800   1.413       .  A
C799        O804   1.371       .  S
C800        C801   1.402       .  A
C801        C802   1.401       .  A
C801        H805   1.084       .  S
C802        O806   1.372       .  S
O804        H808   0.992       .  S
O806        H807   0.992       .  S
C809        C810   1.412       .  A
C809        C814   1.410       .  A
C810        C811   1.396       .  A
C810        H815   1.083       .  S
C811        C812   1.403       .  A
C811        O816   1.373       .  S
C812        C813   1.407       .  A
C813        C814   1.405       .  A
C813        H817   1.084       .  S
C814        O818   1.371       .  S
O816        H820   0.992       .  S
O818        H819   0.992       .  S
C821        C822   1.411       .  A
C821        C826   1.417       .  A
C822        C823   1.417       .  A
C822        H827   1.083       .  S
C823        C824   1.417       .  A
C823        O828   1.371       .  S
C824        C825   1.411       .  A
C825        C826   1.415       .  A
C825        H829   1.083       .  S
C826        O830   1.371       .  S
O828        H832   0.992       .  S
O830        H831   0.992       .  S
C833        C834   1.410       .  A
C833        C838   1.400       .  A
C834        C835   1.390   1_556  A
C834        H839   1.081   1_556  S
C835       C1764   1.399   1_545  A
C835        O840   1.372       .  S
C836        C837   1.417   1_554  A
C836       C1763   1.399       .  A
C837       C1766   1.408       .  A
C837        H841   1.083       .  S
C838       C1765   1.408   1_545  A
C838        O842   1.371       .  S
O840        H844   0.992       .  S
O842       H1771   0.992       .  S
H843       O1770   0.992       .  S
C845        C846   1.398       .  A
C845        C850   1.417       .  A
C846        C847   1.403       .  A
C846        H851   1.084       .  S
C847        C848   1.418   1_554  A
C847        O852   1.372       .  S
C848        C849   1.396       .  A
C849        C850   1.398   1_556  A
C849        H853   1.084       .  S
C850        O854   1.372       .  S
O852        H856   0.992       .  S
O854        H855   0.992       .  S
C857        C858   1.398   1_655  A
C857        C862   1.416       .  A
C858        C859   1.400       .  A
C858        H863   1.083   1_455  S
C859        C860   1.412       .  A
C859        O864   1.370       .  S
C860        C861   1.395       .  A
C861        C862   1.395   1_455  A
C861        H865   1.084       .  S
C862        O866   1.373       .  S
O864        H868   0.992       .  S
O866        H867   0.992       .  S
C869        C870   1.411       .  A
C869        C874   1.417       .  A
C870        C871   1.408       .  A
C870        H875   1.083       .  S
C871        C872   1.405       .  A
C871        O876   1.371       .  S
C872        C873   1.396       .  A
C873        C874   1.395       .  A
C873        H877   1.085       .  S
C874        O878   1.372       .  S
O876        H880   0.992       .  S
O878        H879   0.992       .  S
C881        C882   1.410       .  A
C881       C1814   1.418       .  A
C882        C883   1.412       .  A
C882        H887   1.083       .  S
C883       C1812   1.416       .  A
C883        O888   1.371       .  S
C884        C885   1.408       .  A
C884       C1811   1.416   1_545  A
C885        C886   1.408       .  A
C885        H889   1.083       .  S
C886       C1809   1.418   1_545  A
C886        O890   1.371       .  S
O888        H892   0.992       .  S
O890        H891   0.992       .  S
C893        C894   1.405       .  A
C893        C898   1.406       .  A
C894        C895   1.399   1_556  A
C894        H899   1.078       .  S
C895        C896   1.407       .  A
C895        O900   1.372       .  S
C896        C934   1.482       .  S
C896        C897   1.409   1_554  A
C897        C898   1.405       .  A
C897       H1829   1.083       .  S
C898        O902   1.372       .  S
O900        H904   0.992       .  S
H901       C1825   1.083       .  S
O902        H903   0.992       .  S
C905        C906   1.410       .  A
C905        C910   1.405       .  A
C906        C907   1.398   1_554  A
C906        H911   1.084       .  S
C907        C908   1.403       .  A
C907        O912   1.372       .  S
C908        C909   1.412   1_556  A
C909        C910   1.407       .  A
C909        H913   1.084       .  S
C910        O914   1.371       .  S
O912        H916   0.992       .  S
O914        H915   0.992       .  S
C917        C918   1.397   1_556  A
C917        C922   1.401       .  A
C918        C919   1.391   1_554  A
C918        H923   1.085       .  S
C919        C920   1.405       .  A
C919        O924   1.369       .  S
C920        C921   1.403       .  A
C921        C922   1.384       .  A
C921        H925   1.085       .  S
C922        O926   1.373       .  S
O924        H928   0.992   1_556  S
O926        H927   0.991       .  S
O929        C944   1.261       .  A
O929       Al937   1.841       .  S
C930        O940   1.263       .  A
C930        O931   1.265       .  A
C930       C1812   1.508       .  S
O931       Al933   1.928       .  S
O932        C934   1.256       .  A
O932       Al933   1.930       .  S
Al933       O941   1.920       .  S
Al933       O943   1.972       .  S
Al933       O942   1.779       .  S
C934        O947   1.244       .  A
O935        C945   1.267       .  A
O935       Al937   1.888       .  S
O936        C949   1.266       .  A
O936       Al946   1.955       .  S
Al937       O950   1.860       .  S
Al937       O947   1.887       .  S
Al937       O942   1.791       .  S
O938        C945   1.266       .  A
O938       Al946   1.872       .  S
O939        C948   1.257       .  A
O939       Al946   1.879       .  S
O940       Al946   1.915       .  S
O941        C948   1.263       .  A
O942       Al946   1.773       .  S
O943        C944   1.281       .  A
C944       C1785   1.469       .  S
C945       C1845   1.428   1_554  S
C948       C1797   1.492       .  S
C949        O950   1.247       .  A
C949       C1833   1.478       .  S
O951        C966   1.247       .  A
O951       Al959   1.860       .  S
C952        O962   1.270       .  A
C952        O953   1.277       .  A
C952       C1749   1.519       .  S
O953       Al955   1.967       .  S
O954        C956   1.249       .  A
O954       Al955   1.835       .  S
Al955       O963   1.863       .  S
Al955       O965   2.010       .  S
Al955       O964   1.759       .  S
C956        O969   1.268       .  A
C956       C1848   1.451       .  S
O957        C967   1.253       .  A
O957       Al959   1.851       .  S
O958        C971   1.267       .  A
O958       Al968   1.935       .  S
Al959       O972   1.923       .  S
Al959       O969   1.953       .  S
Al959       O964   1.758       .  S
O960        C967   1.281       .  A
O960       Al968   1.985       .  S
O961        C970   1.276       .  A
O961       Al968   1.969       .  S
O962       Al968   1.932       .  S
O963        C970   1.258       .  A
O964       Al968   1.760       .  S
O965        C966   1.277       .  A
C966       C1761   1.478       .  S
C967       C1776   1.479       .  S
C970       C1737   1.489       .  S
C971        O972   1.265       .  A
C971       C1725   1.500       .  S
O973        C988   1.251       .  A
O973       Al981   1.876       .  S
C974        O984   1.270       .  A
C974        O975   1.278       .  A
C974       C1752   1.518       .  S
O975       Al977   1.972       .  S
O976        C978   1.248       .  A
O976       Al977   1.822       .  S
Al977       O985   1.870       .  S
Al977       O987   1.981       .  S
Al977       O986   1.766       .  S
C978        O991   1.265       .  A
C978       C1713   1.422       .  S
O979        C989   1.255       .  A
O979       Al981   1.871       .  S
O980        C993   1.265       .  A
O980       Al990   1.924       .  S
Al981       O994   1.924       .  S
Al981       O991   1.923       .  S
Al981       O986   1.768       .  S
O982        C989   1.276       .  A
O982       Al990   1.973       .  S
O983        C992   1.272       .  A
O983       Al990   1.953       .  S
O984       Al990   1.927       .  S
O985        C992   1.257       .  A
O986       Al990   1.763       .  S
O987        C988   1.273       .  A
C988       C1821   1.475       .  S
C989       C1836   1.483       .  S
C992       C1701   1.482       .  S
C993        O994   1.265       .  A
C993       C1689   1.484       .  S
O995       C1010   1.260       .  A
O995      Al1003   1.848       .  S
C996       O1006   1.268       .  A
C996        O997   1.264       .  A
C996       C1809   1.510       .  S
O997       Al999   1.912       .  S
O998       C1000   1.253       .  A
O998       Al999   1.911       .  S
Al999      O1007   1.906       .  S
Al999      O1009   1.949       .  S
Al999      O1008   1.785       .  S
C1000      O1013   1.241       .  A
C1000      C1764   1.480       .  S
O1001      C1011   1.268       .  A
O1001     Al1003   1.892       .  S
O1002      C1015   1.266       .  A
O1002     Al1012   1.956       .  S
Al1003     O1016   1.839       .  S
Al1003     O1013   1.866       .  S
Al1003     O1008   1.793       .  S
O1004      C1011   1.260       .  A
O1004     Al1012   1.848       .  S
O1005      C1014   1.252       .  A
O1005     Al1012   1.869       .  S
O1006     Al1012   1.933       .  S
O1007      C1014   1.257       .  A
O1008     Al1012   1.781       .  S
O1009      C1010   1.276       .  A
C1010      C1665   1.467       .  S
C1011      C1716   1.436       .  S
C1014      C1680   1.473       .  S
C1015      O1016   1.243       .  A
C1015      C1773   1.472       .  S
O1017      C1032   1.270       .  A
O1017     Al1025   1.863       .  S
C1018      O1028   1.261       .  A
C1018      O1019   1.265       .  A
C1018      C1617   1.501       .  S
O1019     Al1021   1.922       .  S
O1020      C1022   1.253       .  A
O1020     Al1021   1.933       .  S
Al1021     O1029   1.909       .  S
Al1021     O1031   1.973       .  S
Al1021     O1030   1.771       .  S
C1022      O1035   1.238       .  A
C1022      C1641   1.471       .  S
O1023      C1033   1.272       .  A
O1023     Al1025   1.887       .  S
O1024      C1037   1.262       .  A
O1024     Al1034   1.958       .  S
Al1025     O1038   1.838       .  S
Al1025     O1035   1.865       .  S
Al1025     O1030   1.779       .  S
O1026      C1033   1.273       .  A
O1026     Al1034   1.892       .  S
O1027      C1036   1.257       .  A
O1027     Al1034   1.887       .  S
O1028     Al1034   1.903       .  S
O1029      C1036   1.261       .  A
O1030     Al1034   1.772       .  S
O1031      C1032   1.287       .  A
C1032      C1605   1.473       .  S
C1033      C1653   1.442       .  S
C1036      C1800   1.468       .  S
C1037      O1038   1.240       .  A
C1037      C1629   1.475       .  S
O1039      C1054   1.254       .  A
O1039     Al1047   1.875       .  S
C1040      O1050   1.270       .  A
C1040      O1041   1.276       .  A
C1040      C1569   1.519       .  S
O1041     Al1043   1.969       .  S
O1042      C1044   1.254       .  A
O1042     Al1043   1.852       .  S
Al1043     O1051   1.882       .  S
Al1043     O1053   1.982       .  S
Al1043     O1052   1.761       .  S
C1044      O1057   1.265       .  A
C1044      C1656   1.461       .  S
O1045      C1055   1.257       .  A
O1045     Al1047   1.869       .  S
O1046      C1059   1.267       .  A
O1046     Al1056   1.933       .  S
Al1047     O1060   1.921       .  S
Al1047     O1057   1.927       .  S
Al1047     O1052   1.770       .  S
O1048      C1055   1.277       .  A
O1048     Al1056   1.967       .  S
O1049      C1058   1.270       .  A
O1049     Al1056   1.945       .  S
O1050     Al1056   1.930       .  S
O1051      C1058   1.258       .  A
O1052     Al1056   1.763       .  S
O1053      C1054   1.275       .  A
C1054      C1596   1.481       .  S
C1058      C1740   1.475       .  S
C1059      O1060   1.264       .  A
C1059      C1560   1.490       .  S
O1061      C1076   1.268       .  A
O1061     Al1069   1.860       .  S
C1062      O1072   1.263       .  A
C1062      O1063   1.264       .  A
C1062      C1620   1.502       .  S
O1063     Al1065   1.912       .  S
O1064      C1066   1.255       .  A
O1064     Al1065   1.940       .  S
Al1065     O1073   1.909       .  S
Al1065     O1075   1.967       .  S
Al1065     O1074   1.770       .  S
C1066      O1079   1.242       .  A
C1066      C1593   1.476       .  S
O1067      C1077   1.275       .  A
O1067     Al1069   1.893       .  S
O1068      C1081   1.261       .  A
O1068     Al1078   1.947       .  S
Al1069     O1082   1.863       .  S
Al1069     O1079   1.887       .  S
Al1069     O1074   1.781       .  S
O1070      C1077   1.272       .  A
O1070     Al1078   1.885       .  S
O1071      C1080   1.256       .  A
O1071     Al1078   1.876       .  S
O1072     Al1078   1.914       .  S
O1073      C1080   1.261       .  A
O1074     Al1078   1.771       .  S
O1075      C1076   1.284       .  A
C1076      C1533   1.470       .  S
C1077      C1545   1.449       .  S
C1080      C1677   1.474       .  S
C1081      O1082   1.244       .  A
C1081      C1581   1.471       .  S
O1083      C1098   1.249       .  A
O1083     Al1091   1.862       .  S
C1084      O1094   1.267       .  A
C1084      O1085   1.277       .  A
C1084      C1572   1.517       .  S
O1085     Al1087   1.971       .  S
O1086      C1088   1.251       .  A
O1086     Al1087   1.841       .  S
Al1087     O1095   1.872       .  S
Al1087     O1097   2.004       .  S
Al1087     O1096   1.763       .  S
C1088      O1101   1.266       .  A
C1088      C1548   1.458       .  S
O1089      C1099   1.256       .  A
O1089     Al1091   1.851       .  S
O1090      C1103   1.266       .  A
O1090     Al1100   1.945       .  S
Al1091     O1104   1.912       .  S
Al1091     O1101   1.942       .  S
Al1091     O1096   1.769       .  S
O1092      C1099   1.279       .  A
O1092     Al1100   1.965       .  S
O1093      C1102   1.271       .  A
O1093     Al1100   1.946       .  S
O1094     Al1100   1.919       .  S
O1095      C1102   1.257       .  A
O1096     Al1100   1.762       .  S
O1097      C1098   1.278       .  A
C1098      C1644   1.485       .  S
C1099      C1632   1.468       .  S
C1102      C1704   1.484       .  S
C1103      O1104   1.260       .  A
C1103      C1521   1.502       .  S
O1105      C1120   1.271       .  A
O1105     Al1113   1.877       .  S
C1106      O1116   1.264       .  A
C1106      O1107   1.262       .  A
C1106      C1473   1.498       .  S
O1107     Al1109   1.903       .  S
O1108      C1110   1.254       .  A
O1108     Al1109   1.926       .  S
Al1109     O1117   1.909       .  S
Al1109     O1119   1.948       .  S
Al1109     O1118   1.774       .  S
C1110      O1123   1.241       .  A
C1110      C1500   1.476       .  S
O1111      C1121   1.273       .  A
O1111     Al1113   1.891       .  S
O1112      C1125   1.261       .  A
O1112     Al1122   1.952       .  S
Al1113     O1126   1.851       .  S
Al1113     O1123   1.872       .  S
Al1113     O1118   1.780       .  S
O1114      C1121   1.271       .  A
O1114     Al1122   1.885       .  S
O1115      C1124   1.256       .  A
O1115     Al1122   1.879       .  S
O1116     Al1122   1.919       .  S
O1117      C1124   1.261       .  A
O1118     Al1122   1.774       .  S
O1119      C1120   1.280       .  A
C1120      C1788   1.468       .  S
C1121      C1509   1.449       .  S
C1124      C1461   1.478       .  S
C1125      O1126   1.240       .  A
C1125      C1488   1.465       .  S
O1127      C1142   1.253       .  A
O1127     Al1135   1.867       .  S
C1128      O1138   1.270       .  A
C1128      O1129   1.278       .  A
C1128      C1428   1.521       .  S
O1129     Al1131   1.974       .  S
O1130      C1132   1.252       .  A
O1130     Al1131   1.849       .  S
Al1131     O1139   1.876       .  S
Al1131     O1141   1.990       .  S
Al1131     O1140   1.762       .  S
C1132      O1145   1.265       .  A
C1132      C1512   1.456       .  S
O1133      C1143   1.257       .  A
O1133     Al1135   1.866       .  S
O1134      C1147   1.266       .  A
O1134     Al1144   1.934       .  S
Al1135     O1148   1.921       .  S
Al1135     O1145   1.928       .  S
Al1135     O1140   1.769       .  S
O1136      C1143   1.278       .  A
O1136     Al1144   1.970       .  S
O1137      C1146   1.269       .  A
O1137     Al1144   1.947       .  S
O1138     Al1144   1.925       .  S
O1139      C1146   1.255       .  A
O1140     Al1144   1.763       .  S
O1141      C1142   1.277       .  A
C1142      C1452   1.487       .  S
C1146      C1416   1.465       .  S
C1147      O1148   1.263       .  A
C1147      C1728   1.489       .  S
O1149      C1164   1.249       .  A
O1149     Al1157   1.863       .  S
C1150      O1160   1.268       .  A
C1150      O1151   1.276       .  A
C1150      C1425   1.515       .  S
O1151     Al1153   1.967       .  S
O1152      C1154   1.249       .  A
O1152     Al1153   1.835       .  S
Al1153     O1161   1.871       .  S
Al1153     O1163   2.007       .  S
Al1153     O1162   1.761       .  S
C1154      O1167   1.265       .  A
C1154      C1404   1.444       .  S
O1155      C1165   1.251       .  A
O1155     Al1157   1.843       .  S
O1156      C1169   1.266       .  A
O1156     Al1166   1.931       .  S
Al1157     O1170   1.917       .  S
Al1157     O1167   1.940       .  S
Al1157     O1162   1.765       .  S
O1158      C1165   1.277       .  A
O1158     Al1166   1.979       .  S
O1159      C1168   1.274       .  A
O1159     Al1166   1.961       .  S
O1160     Al1166   1.923       .  S
O1161      C1168   1.260       .  A
O1162     Al1166   1.766       .  S
O1163      C1164   1.278       .  A
C1164      C1497   1.489       .  S
C1165      C1485   1.465       .  S
C1168      C1389   1.489       .  S
C1169      O1170   1.264       .  A
C1169      C1692   1.494       .  S
O1171      C1186   1.264       .  A
O1171     Al1179   1.850       .  S
C1172      O1182   1.264       .  A
C1172      O1173   1.264       .  A
C1172      C1476   1.500       .  S
O1173     Al1175   1.911       .  S
O1174      C1176   1.254       .  A
O1174     Al1175   1.939       .  S
Al1175     O1183   1.906       .  S
Al1175     O1185   1.964       .  S
Al1175     O1184   1.776       .  S
C1176      O1189   1.241       .  A
C1176      C1449   1.473       .  S
O1177      C1187   1.272       .  A
O1177     Al1179   1.886       .  S
O1178      C1191   1.263       .  A
O1178     Al1188   1.956       .  S
Al1179     O1192   1.850       .  S
Al1179     O1189   1.881       .  S
Al1179     O1184   1.784       .  S
O1180      C1187   1.269       .  A
O1180     Al1188   1.882       .  S
O1181      C1190   1.256       .  A
O1181     Al1188   1.879       .  S
O1182     Al1188   1.914       .  S
O1183      C1190   1.260       .  A
O1184     Al1188   1.772       .  S
O1185      C1186   1.282       .  A
C1186      C1668   1.467       .  S
C1187      C1401   1.429       .  S
C1190      C1380   1.474       .  S
C1191      O1192   1.242       .  A
C1191      C1437   1.474       .  S
O1193      C1208   1.268       .  A
O1193     Al1201   1.862       .  S
C1194      O1204   1.264       .  A
C1194      O1195   1.264       .  A
C1194      C1329   1.507       .  S
O1195     Al1197   1.916       .  S
O1196      C1198   1.253       .  A
O1196     Al1197   1.933       .  S
Al1197     O1205   1.913       .  S
Al1197     O1207   1.969       .  S
Al1197     O1206   1.772       .  S
C1198      O1211   1.242       .  A
O1199      C1209   1.275       .  A
O1199     Al1201   1.895       .  S
O1200      C1213   1.262       .  A
O1200     Al1210   1.949       .  S
Al1201     O1214   1.868       .  S
Al1201     O1211   1.891       .  S
Al1201     O1206   1.784       .  S
O1202      C1209   1.269       .  A
O1202     Al1210   1.874       .  S
O1203      C1212   1.255       .  A
O1203     Al1210   1.875       .  S
O1204     Al1210   1.922       .  S
O1205      C1212   1.261       .  A
O1206     Al1210   1.772       .  S
O1207      C1208   1.285       .  A
C1208      C1608   1.472       .  S
C1209      C1365   1.447       .  S
C1212      C1464   1.474       .  S
C1213      O1214   1.244       .  A
C1213      C1341   1.470       .  S
O1215      C1230   1.249       .  A
O1215     Al1223   1.861       .  S
C1216      O1226   1.270       .  A
C1216      O1217   1.278       .  A
C1216      C1296   1.518       .  S
O1217     Al1219   1.969       .  S
O1218      C1220   1.248       .  A
O1218     Al1219   1.844       .  S
Al1219     O1227   1.866       .  S
Al1219     O1229   2.013       .  S
Al1219     O1228   1.761       .  S
C1220      O1233   1.264       .  A
C1220      C1368   1.456       .  S
O1221      C1231   1.251       .  A
O1221     Al1223   1.840       .  S
O1222      C1235   1.267       .  A
O1222     Al1232   1.937       .  S
Al1223     O1236   1.922       .  S
Al1223     O1233   1.933       .  S
Al1223     O1228   1.756       .  S
O1224      C1231   1.279       .  A
O1224     Al1232   1.985       .  S
O1225      C1234   1.272       .  A
O1225     Al1232   1.955       .  S
O1226     Al1232   1.926       .  S
O1227      C1234   1.257       .  A
O1228     Al1232   1.765       .  S
O1229      C1230   1.279       .  A
C1230      C1320   1.486       .  S
C1231      C1305   1.474       .  S
C1234      C1413   1.469       .  S
C1235      O1236   1.265       .  A
C1235      C1557   1.500       .  S
O1237      C1252   1.254       .  A
O1237     Al1245   1.876       .  S
C1238      O1248   1.271       .  A
C1238      O1239   1.277       .  A
C1238      C1293   1.517       .  S
O1239     Al1241   1.967       .  S
O1240      C1242   1.252       .  A
O1240     Al1241   1.841       .  S
Al1241     O1249   1.885       .  S
Al1241     O1251   1.980       .  S
Al1241     O1250   1.760       .  S
C1242      O1255   1.265       .  A
C1242      C1284   1.457       .  S
O1243      C1253   1.256       .  A
O1243     Al1245   1.872       .  S
O1244      C1257   1.268       .  A
O1244     Al1254   1.936       .  S
Al1245     O1258   1.918       .  S
Al1245     O1255   1.926       .  S
Al1245     O1250   1.769       .  S
O1246      C1253   1.276       .  A
O1246     Al1254   1.977       .  S
O1247      C1256   1.271       .  A
O1247     Al1254   1.952       .  S
O1248     Al1254   1.931       .  S
O1249      C1256   1.258       .  A
O1250     Al1254   1.765       .  S
O1251      C1252   1.274       .  A
C1252      C1356   1.480       .  S
C1253      C1344   1.476       .  S
C1256      C1392   1.475       .  S
C1257      O1258   1.265       .  A
C1257      C1524   1.495       .  S
O1259      C1274   1.266       .  A
O1259     Al1267   1.855       .  S
C1260      O1270   1.264       .  A
C1260      O1261   1.266       .  A
C1260      C1332   1.507       .  S
O1261     Al1263   1.927       .  S
O1262      C1264   1.255       .  A
O1262     Al1263   1.922       .  S
Al1263     O1271   1.906       .  S
Al1263     O1273   1.971       .  S
Al1263     O1272   1.770       .  S
C1264      O1277   1.239       .  A
C1264      C1317   1.476       .  S
O1265      C1275   1.269       .  A
O1265     Al1267   1.878       .  S
O1266      C1279   1.262       .  A
O1266     Al1276   1.951       .  S
Al1267     O1280   1.846       .  S
Al1267     O1277   1.868       .  S
Al1267     O1272   1.785       .  S
O1268      C1275   1.271       .  A
O1268     Al1276   1.889       .  S
O1269      C1278   1.256       .  A
O1269     Al1276   1.880       .  S
O1270     Al1276   1.912       .  S
O1271      C1278   1.260       .  A
O1272     Al1276   1.772       .  S
O1273      C1274   1.285       .  A
C1274      C1536   1.472       .  S
C1275      C1281   1.434       .  S
C1278      C1377   1.477       .  S
C1279      O1280   1.241       .  A
C1279      C1308   1.464       .  S
C1281      C1282   1.399       .  A
C1281      C1286   1.397       .  A
C1282      C1283   1.389       .  A
C1282      H1287   1.085       .  S
C1283      C1284   1.408       .  A
C1283      O1288   1.372       .  S
C1284      C1285   1.407       .  A
C1285      C1286   1.383       .  A
C1285      H1289   1.084       .  S
C1286      O1290   1.373       .  S
O1288      H1292   0.992       .  S
O1290      H1291   0.991       .  S
C1293      C1294   1.410       .  A
C1293      C1298   1.417       .  A
C1294      C1295   1.415       .  A
C1294      H1299   1.083       .  S
C1295      C1296   1.417       .  A
C1295      O1300   1.370       .  S
C1296      C1297   1.411       .  A
C1297      C1298   1.415       .  A
C1297      H1301   1.083       .  S
C1298      O1302   1.371       .  S
O1300      H1304   0.991       .  S
O1302      H1303   0.992       .  S
C1305      C1306   1.412       .  A
C1305      C1310   1.401       .  A
C1306      C1307   1.399       .  A
C1306      H1311   1.084       .  S
C1307      C1308   1.400       .  A
C1307      O1312   1.371       .  S
C1308      C1309   1.410       .  A
C1309      C1310   1.397       .  A
C1309      H1313   1.084       .  S
C1310      O1314   1.371       .  S
O1312      H1316   0.992       .  S
O1314      H1315   0.992       .  S
C1317      C1322   1.419       .  A
C1318      C1319   1.389       .  A
C1318      H1323   1.084       .  S
C1319      C1320   1.423       .  A
C1319      O1324   1.369       .  S
C1320      C1321   1.399       .  A
C1322      O1326   1.371       .  S
O1324      H1328   0.992       .  S
O1326      H1327   0.991       .  S
C1329      C1330   1.410       .  A
C1330      C1331   1.410       .  A
C1330      H1335   1.083       .  S
C1331      O1336   1.371       .  S
C1332      C1333   1.410       .  A
C1333      C1334   1.408       .  A
C1333      H1337   1.083       .  S
C1334      O1338   1.371       .  S
O1336      H1340   0.992       .  S
O1338      H1339   0.992       .  S
C1341      C1342   1.406       .  A
C1341      C1346   1.408       .  A
C1342      C1343   1.405       .  A
C1342      H1347   1.084       .  S
C1343      C1344   1.406       .  A
C1343      O1348   1.371       .  S
C1344      C1345   1.404       .  A
C1345      C1346   1.402       .  A
C1345      H1349   1.084       .  S
C1346      O1350   1.372       .  S
O1348      H1352   0.992       .  S
O1350      H1351   0.991       .  S
C1353      C1354   1.402       .  A
C1353      C1358   1.408       .  A
C1354      C1355   1.404       .  A
C1354      H1359   1.084       .  S
C1355      C1356   1.412       .  A
C1355      O1360   1.373       .  S
C1356      C1357   1.406       .  A
C1357      C1358   1.404       .  A
C1357      H1361   1.083       .  S
O1360      H1364   0.992       .  S
O1362      H1363   0.992       .  S
C1365      C1366   1.392       .  A
C1365      C1370   1.410       .  A
C1366      C1367   1.388       .  A
C1366      H1371   1.084       .  S
C1367      C1368   1.416       .  A
C1367      O1372   1.372       .  S
C1368      C1369   1.396       .  A
C1369      C1370   1.386       .  A
C1369      H1373   1.083       .  S
C1370      O1374   1.373       .  S
O1372      H1376   0.991       .  S
O1374      H1375   0.992       .  S
C1377      C1378   1.405       .  A
C1377      C1382   1.408       .  A
C1378      C1379   1.400       .  A
C1378      H1383   1.084       .  S
C1379      C1380   1.407       .  A
C1379      O1384   1.371       .  S
C1380      C1381   1.404       .  A
C1381      C1382   1.400       .  A
C1381      H1385   1.084       .  S
C1382      O1386   1.371       .  S
O1384      H1388   0.992       .  S
O1386      H1387   0.992       .  S
C1389      C1390   1.410       .  A
C1389      C1394   1.410       .  A
C1390      C1391   1.398       .  A
C1390      H1395   1.083       .  S
C1391      C1392   1.404       .  A
C1391      O1396   1.373       .  S
C1392      C1393   1.406       .  A
C1393      C1394   1.406       .  A
C1393      H1397   1.084       .  S
C1394      O1398   1.371       .  S
O1396      H1400   0.992       .  S
O1398      H1399   0.992       .  S
C1401      C1402   1.397       .  A
C1401      C1406   1.401   1_554  A
C1402      C1403   1.392       .  A
C1402      H1407   1.084       .  S
C1403      C1404   1.406   1_554  A
C1403      O1408   1.371       .  S
C1404      C1405   1.400       .  A
C1405      C1406   1.381       .  A
C1405      H1409   1.085       .  S
C1406      O1410   1.373       .  S
O1408      H1412   0.992       .  S
O1410      H1411   0.991       .  S
C1413      C1414   1.402       .  A
C1413      C1418   1.407       .  A
C1414      C1415   1.392       .  A
C1414      H1419   1.084       .  S
C1415      C1416   1.404       .  A
C1415      O1420   1.373       .  S
C1416      C1417   1.405       .  A
C1417      C1418   1.408       .  A
C1417      H1421   1.083       .  S
C1418      O1422   1.371       .  S
O1420      H1424   0.992       .  S
O1422      H1423   0.991       .  S
C1425      C1430   1.415       .  A
C1426      C1427   1.416       .  A
C1426      H1431   1.083       .  S
C1427      C1428   1.417       .  A
C1427      O1432   1.370       .  S
C1429      C1430   1.415       .  A
C1429      H1433   1.083       .  S
C1430      O1434   1.371       .  S
O1432      H1436   0.990       .  S
O1434      H1435   0.992       .  S
C1437      C1438   1.400       .  A
C1437      C1442   1.415       .  A
C1438      H1443   1.084       .  S
C1439      O1444   1.372       .  S
C1440      C1441   1.396       .  A
C1441      C1442   1.395   1_556  A
C1441      H1445   1.084       .  S
C1442      O1446   1.373       .  S
O1444      H1448   0.992       .  S
O1446      H1447   0.992   1_554  S
C1449      C1450   1.398   1_554  A
C1449      C1454   1.409   1_554  A
C1450      C1451   1.400       .  A
C1450      H1455   1.084   1_556  S
C1451      C1452   1.419       .  A
C1451      O1456   1.373       .  S
C1452      C1453   1.406       .  A
C1453      C1454   1.405       .  A
C1453      H1457   1.084       .  S
C1454      O1458   1.372       .  S
O1456      H1460   0.991       .  S
O1458      H1459   0.992       .  S
C1461      C1462   1.406       .  A
C1461      C1466   1.408       .  A
C1462      C1463   1.400       .  A
C1462      H1467   1.084       .  S
C1463      C1464   1.407       .  A
C1463      O1468   1.372       .  S
C1464      C1465   1.404       .  A
C1465      C1466   1.400       .  A
C1465      H1469   1.084       .  S
C1466      O1470   1.371       .  S
O1468      H1472   0.992       .  S
O1470      H1471   0.992       .  S
C1473      C1474   1.408       .  A
C1473      C1478   1.412       .  A
C1474      C1475   1.405       .  A
C1474      H1479   1.083       .  S
C1475      C1476   1.414       .  A
C1475      O1480   1.372       .  S
C1476      C1477   1.409       .  A
C1477      C1478   1.411       .  A
C1477      H1481   1.083       .  S
C1478      O1482   1.374       .  S
O1480      H1484   0.991       .  S
O1482      H1483   0.991       .  S
C1485      C1490   1.405   1_566  A
C1486      C1487   1.399   1_556  A
C1487      C1488   1.409       .  A
C1487      O1492   1.372       .  S
C1488      C1489   1.404       .  A
C1489      H1493   1.079       .  S
C1490      O1494   1.372   1_545  S
O1492      H1496   0.991       .  S
O1494      H1495   0.992   1_564  S
C1497      C1498   1.400       .  A
C1497      C1502   1.424       .  A
C1498      C1499   1.408       .  A
C1498      H1503   1.083       .  S
C1499      C1500   1.417   1_556  A
C1499      O1504   1.371       .  S
C1500      C1501   1.389       .  A
C1501      C1502   1.393   1_554  A
C1501      H1505   1.084       .  S
C1502      O1506   1.370   1_556  S
O1504      H1508   0.992       .  S
O1506      H1507   0.992       .  S
C1509      C1510   1.393   1_554  A
C1509      C1514   1.409       .  A
C1510      C1511   1.389       .  A
C1510      H1515   1.084       .  S
C1511      C1512   1.414       .  A
C1511      O1516   1.372       .  S
C1512      C1513   1.396   1_556  A
C1513      C1514   1.388       .  A
C1513      H1517   1.084       .  S
C1514      O1518   1.372       .  S
O1516      H1520   0.991       .  S
O1518      H1519   0.992       .  S
C1521      C1522   1.409       .  A
C1521      C1526   1.417       .  A
C1522      C1523   1.412   1_655  A
C1522      H1527   1.083       .  S
C1523      C1524   1.414       .  A
C1523      O1528   1.371       .  S
C1524      C1525   1.403       .  A
C1525      C1526   1.400   1_455  A
C1525      H1529   1.084       .  S
C1526      O1530   1.371       .  S
O1528      H1532   0.992       .  S
O1530      H1531   0.992       .  S
C1533      C1534   1.396       .  A
C1533      C1538   1.414       .  A
C1534      C1535   1.398       .  A
C1534      H1539   1.084       .  S
C1535      C1536   1.416       .  A
C1535      O1540   1.372       .  S
C1536      C1537   1.397       .  A
C1537      C1538   1.398       .  A
C1537      H1541   1.084       .  S
C1538      O1542   1.372       .  S
O1540      H1544   0.992       .  S
O1542      H1543   0.992       .  S
C1545      C1546   1.405       .  A
C1545      C1550   1.397       .  A
C1546      C1547   1.388       .  A
C1546      H1551   1.083       .  S
C1547      C1548   1.402       .  A
C1547      O1552   1.372       .  S
C1548      C1549   1.410       .  A
C1549      C1550   1.386       .  A
C1549      H1553   1.083       .  S
C1550      O1554   1.372       .  S
O1552      H1556   0.992       .  S
O1554      H1555   0.992       .  S
C1557      C1558   1.409       .  A
C1557      C1562   1.418       .  A
C1558      C1559   1.411       .  A
C1558      H1563   1.083       .  S
C1559      C1560   1.413       .  A
C1559      O1564   1.372       .  S
C1560      C1561   1.402       .  A
C1561      C1562   1.401       .  A
C1561      H1565   1.084       .  S
C1562      O1566   1.371       .  S
O1564      H1568   0.992       .  S
O1566      H1567   0.992       .  S
C1569      C1574   1.418       .  A
C1570      C1571   1.416       .  A
C1570      H1575   1.083       .  S
C1571      C1572   1.416       .  A
C1571      O1576   1.371       .  S
C1572      C1573   1.411   1_565  A
C1573      H1577   1.083       .  S
C1574      O1578   1.371       .  S
O1576      H1580   0.992       .  S
O1578      H1579   0.992       .  S
C1581      C1582   1.400       .  A
C1581      C1586   1.413       .  A
C1582      C1583   1.404       .  A
C1582      H1587   1.084       .  S
C1583      C1584   1.416       .  A
C1584      C1585   1.398       .  A
C1585      C1586   1.398       .  A
C1585      H1589   1.084       .  S
C1586      O1590   1.373       .  S
O1590      H1591   0.992       .  S
C1593      C1594   1.403       .  A
C1593      C1598   1.407       .  A
C1594      C1595   1.403       .  A
C1594      H1599   1.084       .  S
C1595      C1596   1.411       .  A
C1595      O1600   1.373       .  S
C1596      C1597   1.406       .  A
C1597      C1598   1.404       .  A
C1597      H1601   1.083       .  S
C1598      O1602   1.372       .  S
O1600      H1604   0.992       .  S
O1602      H1603   0.992       .  S
C1605      C1606   1.409       .  A
C1605      C1610   1.403       .  A
C1606      C1607   1.400   1_655  A
C1606      H1611   1.084       .  S
C1607      C1608   1.402       .  A
C1607      O1612   1.371       .  S
C1608      C1609   1.408       .  A
C1609      C1610   1.399   1_455  A
C1609      H1613   1.084       .  S
C1610      O1614   1.371       .  S
O1612      H1616   0.992       .  S
O1614      H1615   0.992       .  S
C1617      C1618   1.408       .  A
C1617      C1622   1.416       .  A
C1618      C1619   1.408       .  A
C1618      H1623   1.083       .  S
C1619      C1620   1.416       .  A
C1619      O1624   1.371       .  S
C1620      C1621   1.407       .  A
C1621      C1622   1.404       .  A
C1621      H1625   1.083       .  S
C1622      O1626   1.371       .  S
O1624      H1628   0.992       .  S
O1626      H1627   0.992       .  S
C1629      C1630   1.411       .  A
C1629      C1634   1.403       .  A
C1630      C1631   1.391       .  A
C1630      H1635   1.085       .  S
C1631      O1636   1.372       .  S
C1632      C1633   1.411       .  A
C1633      H1637   1.084       .  S
O1636      H1640   0.992       .  S
O1638      H1639   0.992       .  S
C1641      C1642   1.412       .  A
C1641      C1646   1.395       .  A
C1642      C1643   1.405       .  A
C1642      H1647   1.083       .  S
C1643      C1644   1.403       .  A
C1643      O1648   1.371       .  S
C1644      C1645   1.417       .  A
C1645      C1646   1.394       .  A
C1645      H1649   1.083       .  S
C1646      O1650   1.372       .  S
O1648      H1652   0.992       .  S
O1650      H1651   0.992       .  S
C1653      C1654   1.401       .  A
C1653      C1658   1.399       .  A
C1654      C1655   1.389       .  A
C1654      H1659   1.085       .  S
C1655      C1656   1.408       .  A
C1655      O1660   1.372       .  S
C1656      C1657   1.408       .  A
C1657      C1658   1.386       .  A
C1657      H1661   1.084       .  S
C1658      O1662   1.372       .  S
O1660      H1664   0.992       .  S
O1662      H1663   0.992       .  S
C1665      C1666   1.394       .  A
C1665      C1670   1.415       .  A
C1666      C1667   1.401       .  A
C1666      H1671   1.084       .  S
C1667      C1668   1.415       .  A
C1667      O1672   1.375       .  S
C1668      C1669   1.394       .  A
C1669      C1670   1.396       .  A
C1669      H1673   1.084       .  S
C1670      O1674   1.372       .  S
O1672      H1676   0.991       .  S
O1674      H1675   0.992       .  S
C1677      C1678   1.401       .  A
C1677      C1682   1.411       .  A
C1678      C1679   1.400       .  A
C1678      H1683   1.084       .  S
C1679      C1680   1.410       .  A
C1679      O1684   1.373       .  S
C1680      C1681   1.401       .  A
C1681      C1682   1.400       .  A
C1681      H1685   1.084       .  S
C1682      O1686   1.371       .  S
O1684      H1688   0.992       .  S
O1686      H1687   0.991       .  S
C1689      C1690   1.408       .  A
C1689      C1694   1.405       .  A
C1690      C1691   1.410   1_655  A
C1690      H1695   1.084       .  S
C1691      C1692   1.411       .  A
C1691      O1696   1.371       .  S
C1692      C1693   1.409       .  A
C1693      C1694   1.400   1_455  A
C1693      H1697   1.082       .  S
C1694      O1698   1.372       .  S
O1696      H1700   0.992       .  S
O1698      H1699   0.992   1_655  S
C1701      C1702   1.401       .  A
C1701      C1706   1.414       .  A
C1702      C1703   1.400       .  A
C1702      H1707   1.084       .  S
C1703      C1704   1.416       .  A
C1703      O1708   1.372       .  S
C1704      C1705   1.402       .  A
C1705      C1706   1.400       .  A
C1705      H1709   1.083       .  S
C1706      O1710   1.373       .  S
O1708      H1712   0.992       .  S
O1710      H1711   0.992       .  S
C1713      C1714   1.386       .  A
C1713      C1718   1.408       .  A
C1714      C1715   1.376   1_556  A
C1714      H1719   1.085       .  S
C1715      C1716   1.411       .  A
C1715      O1720   1.373       .  S
C1716      C1717   1.393   1_554  A
C1717      C1718   1.392       .  A
C1717      H1721   1.084       .  S
C1718      O1722   1.374       .  S
O1720      H1724   0.992       .  S
O1722      H1723   0.992       .  S
C1725      C1726   1.409       .  A
C1725      C1730   1.418       .  A
C1726      C1727   1.410       .  A
C1726      H1731   1.083       .  S
C1727      C1728   1.413       .  A
C1727      O1732   1.371       .  S
C1728      C1729   1.402       .  A
C1729      C1730   1.401       .  A
C1729      H1733   1.084       .  S
C1730      O1734   1.372       .  S
O1732      H1736   0.992       .  S
O1734      H1735   0.992       .  S
C1737      C1738   1.412       .  A
C1737      C1742   1.410       .  A
C1738      C1739   1.396       .  A
C1738      H1743   1.083       .  S
C1739      C1740   1.403       .  A
C1739      O1744   1.373       .  S
C1740      C1741   1.407       .  A
C1741      C1742   1.405       .  A
C1741      H1745   1.084       .  S
C1742      O1746   1.371       .  S
O1744      H1748   0.992       .  S
O1746      H1747   0.992       .  S
C1749      C1750   1.411       .  A
C1749      C1754   1.417       .  A
C1750      C1751   1.417       .  A
C1750      H1755   1.083       .  S
C1751      C1752   1.417       .  A
C1751      O1756   1.371       .  S
C1752      C1753   1.411       .  A
C1753      C1754   1.415       .  A
C1753      H1757   1.083       .  S
C1754      O1758   1.371       .  S
O1756      H1760   0.992       .  S
O1758      H1759   0.992       .  S
C1761      C1762   1.410       .  A
C1761      C1766   1.400       .  A
C1762      C1763   1.390   1_556  A
C1762      H1767   1.081   1_556  S
C1763      O1768   1.372       .  S
C1764      C1765   1.417   1_554  A
C1765      H1769   1.083       .  S
C1766      O1770   1.371       .  S
O1768      H1772   0.992       .  S
C1773      C1774   1.398       .  A
C1773      C1778   1.417       .  A
C1774      C1775   1.403       .  A
C1774      H1779   1.084       .  S
C1775      C1776   1.418   1_554  A
C1775      O1780   1.372       .  S
C1776      C1777   1.396       .  A
C1777      C1778   1.398   1_556  A
C1777      H1781   1.084       .  S
C1778      O1782   1.372       .  S
O1780      H1784   0.992       .  S
O1782      H1783   0.992       .  S
C1785      C1786   1.398   1_655  A
C1785      C1790   1.416       .  A
C1786      C1787   1.400       .  A
C1786      H1791   1.083   1_455  S
C1787      C1788   1.412       .  A
C1787      O1792   1.370       .  S
C1788      C1789   1.395       .  A
C1789      C1790   1.395   1_455  A
C1789      H1793   1.084       .  S
C1790      O1794   1.373       .  S
O1792      H1796   0.992       .  S
O1794      H1795   0.992       .  S
C1797      C1798   1.411       .  A
C1797      C1802   1.417       .  A
C1798      C1799   1.408       .  A
C1798      H1803   1.083       .  S
C1799      C1800   1.405       .  A
C1799      O1804   1.371       .  S
C1800      C1801   1.396       .  A
C1801      C1802   1.395       .  A
C1801      H1805   1.085       .  S
C1802      O1806   1.372       .  S
O1804      H1808   0.992       .  S
O1806      H1807   0.992       .  S
C1809      C1810   1.410       .  A
C1810      C1811   1.412       .  A
C1810      H1815   1.083       .  S
C1811      O1816   1.371       .  S
C1812      C1813   1.408       .  A
C1813      C1814   1.408       .  A
C1813      H1817   1.083       .  S
C1814      O1818   1.371       .  S
O1816      H1820   0.992       .  S
O1818      H1819   0.992       .  S
C1821      C1822   1.405       .  A
C1821      C1826   1.406       .  A
C1822      C1823   1.399   1_556  A
C1822      H1827   1.078       .  S
C1823      C1824   1.407       .  A
C1823      O1828   1.372       .  S
C1824      C1825   1.409   1_554  A
C1825      C1826   1.405       .  A
C1826      O1830   1.372       .  S
O1828      H1832   0.992       .  S
O1830      H1831   0.992       .  S
C1833      C1834   1.410       .  A
C1833      C1838   1.405       .  A
C1834      C1835   1.398   1_554  A
C1834      H1839   1.084       .  S
C1835      C1836   1.403       .  A
C1835      O1840   1.372       .  S
C1836      C1837   1.412   1_556  A
C1837      C1838   1.407       .  A
C1837      H1841   1.084       .  S
C1838      O1842   1.371       .  S
O1840      H1844   0.992       .  S
O1842      H1843   0.992       .  S
C1845      C1846   1.397   1_556  A
C1845      C1850   1.401       .  A
C1846      C1847   1.391   1_554  A
C1846      H1851   1.085       .  S
C1847      C1848   1.405       .  A
C1847      O1852   1.369       .  S
C1848      C1849   1.403       .  A
C1849      C1850   1.384       .  A
C1849      H1853   1.085       .  S
C1850      O1854   1.373       .  S
O1852      H1856   0.992   1_556  S
O1854      H1855   0.991       .  S
