geometry optimzed in LAMMPS
_audit_creation_date              2020-12-01 
_audit_creation_method            'lammps2cif' 
_symmetry_space_group_name_H-M    'P1' 
_symmetry_Int_Tables_number       1 
_symmetry_cell_setting            triclinic 
loop_ 
_symmetry_equiv_pos_as_xyz 
  x,y,z 
_cell_length_a                    78.51757482 
_cell_length_b                    40.91859002619461 
_cell_length_c                    78.86746538725615 
_cell_angle_alpha                 89.97321506336979 
_cell_angle_beta                  89.92682775080668 
_cell_angle_gamma                 90.0046747377871 
loop_ 
_atom_site_label 
_atom_site_type_symbol 
_atom_site_fract_x 
_atom_site_fract_y 
_atom_site_fract_z 
_atom_site_charge 
Zr1        Zr  0.61200397  0.22928679  0.85944185     2.17500
O2          O  0.58915212  0.21132281  0.84065294    -0.50700
O3          O  0.61730048  0.17093034  0.86326989    -0.73900
O4          O  0.62099992  0.22276458  0.82991895    -0.80700
O5          O  0.57946288  0.24594764  0.89490213    -0.82500
O6          O  0.64610030  0.24936412  0.82572293    -0.78100
O7          O  0.58234566  0.22496026  0.86830972    -0.89700
O8          O  0.63904054  0.16476500  0.88200651    -0.75700
O9          O  0.64214435  0.22539680  0.86209682    -0.85200
O10         O  0.61754121  0.22102024  0.88889808    -0.84900
O11         O  0.62278918  0.28030987  0.84863104    -0.71600
O12         O  0.60074352  0.27634930  0.87376166    -0.83700
Zr13       Zr  0.64827983  0.31540054  0.89555332     2.26400
Zr14       Zr  0.65310952  0.27652286  0.85202580     2.06300
Zr15       Zr  0.60686456  0.26838586  0.90316619     2.10000
Zr16       Zr  0.64770190  0.21811966  0.89152446     1.78800
O17         O  0.58348902  0.30103862  0.91436387    -0.92500
O18         O  0.67369659  0.19281329  0.88088436    -0.40400
O19         O  0.63707165  0.26486414  0.90635251    -0.77000
O20         O  0.65954680  0.26815218  0.88138112    -0.95700
O21         O  0.64232338  0.32358449  0.86627466    -0.89000
O22         O  0.61807445  0.31907163  0.89303532    -0.91800
C23         C  0.62773751  0.15353862  0.87193888     1.01900
C24         C  0.57356482  0.23224211  0.88151554     1.14900
C25         C  0.63362387  0.23177108  0.82067372     1.05600
O26         O  0.67742666  0.24443550  0.84252779    -0.94000
O27         O  0.67936783  0.30528726  0.85843293    -0.89700
O28         O  0.67607985  0.33054584  0.88398148    -0.82900
C29         C  0.68475063  0.32302528  0.87071450     1.12300
O30         O  0.58837625  0.32702120  0.84394870    -0.96000
Zr31       Zr  0.61222908  0.32680540  0.86373718     1.88900
O32         O  0.64367417  0.37379070  0.89162165    -0.72600
O33         O  0.65626943  0.31812353  0.83014968    -0.51900
O34         O  0.61961420  0.35490109  0.83748108    -0.96500
O35         O  0.58705293  0.35342010  0.87552352    -0.53800
O36         O  0.62239624  0.37988751  0.87228817    -0.73100
C37         C  0.63369616  0.39110913  0.88238528     0.99200
O38         O  0.67085757  0.31776422  0.91690201    -0.61900
O39         O  0.60297091  0.22542351  0.92421129    -0.56700
O40         O  0.63841453  0.32702699  0.92425899    -0.93400
O41         O  0.61517075  0.29514280  0.92942660    -0.91800
O42         O  0.64026701  0.18929105  0.91752029    -0.92200
O43         O  0.67122362  0.21826372  0.91163302    -0.91000
C44         C  0.62665598  0.31568477  0.93394712     1.18100
H45         H  0.61202139  0.20155087  0.89311010     0.34000
H46         H  0.67170680  0.26673110  0.88308708     0.44900
H47         H  0.61370080  0.33703968  0.89967757     0.38400
H48         H  0.61974496  0.28328060  0.83687128     0.34900
H49         H  0.67419163  0.17125091  0.88655802     0.26700
H50         H  0.66566056  0.31006702  0.82288344     0.32600
H51         H  0.61572148  0.37771354  0.83908074     0.38500
H52         H  0.64669075  0.16850553  0.91694446     0.33000
H53         H  0.61343086  0.22618739  0.93120290     0.31800
H54         H  0.57909193  0.28837535  0.92413846     0.33500
H55         H  0.59128055  0.36740139  0.88487046     0.32500
H56         H  0.66949630  0.23833881  0.91841658     0.36500
H57         H  0.66713374  0.30308829  0.92617848     0.29200
H58         H  0.59328972  0.19104396  0.83518386     0.33500
H59         H  0.58588496  0.35034752  0.84167408     0.36300
H60         H  0.59389368  0.23371884  0.93178909     0.28900
H61         H  0.68069166  0.30599814  0.91195379     0.41800
H62         H  0.67328126  0.22158583  0.84226266     0.31800
H63         H  0.67122707  0.18762235  0.86888016     0.39500
H64         H  0.58074997  0.33564930  0.88128998     0.31300
H65         H  0.64595819  0.31603924  0.82302314     0.31400
H66         H  0.58857205  0.22774394  0.83143691     0.31600
Zr67       Zr  0.61119888  0.73172783  0.86045806     2.17500
O68         O  0.58738375  0.72045958  0.84147583    -0.50700
O69         O  0.61522589  0.67298293  0.86316828    -0.73900
O70         O  0.61987619  0.72421600  0.83095530    -0.80700
O71         O  0.57941499  0.74938221  0.89641079    -0.82500
O72         O  0.64620986  0.74627292  0.82714213    -0.78100
O73         O  0.58199006  0.72594494  0.87033384    -0.89700
O74         O  0.63682036  0.66423379  0.88179503    -0.75700
O75         O  0.64106917  0.72365027  0.86351730    -0.85200
O76         O  0.61601835  0.72324995  0.89000101    -0.84900
O77         O  0.62392564  0.78096707  0.84965148    -0.71600
O78         O  0.60136292  0.78023011  0.87445990    -0.83700
Zr79       Zr  0.64997782  0.81306097  0.89673267     2.26400
Zr80       Zr  0.65395749  0.77302709  0.85337778     2.06300
Zr81       Zr  0.60687455  0.77207973  0.90398696     2.10000
Zr82       Zr  0.64587884  0.71609626  0.89305170     1.78800
O83         O  0.58409618  0.80855600  0.91303574    -0.92500
O84         O  0.67204085  0.68923177  0.88402502    -0.40400
O85         O  0.63680995  0.76434357  0.90763310    -0.77000
O86         O  0.65966857  0.76421248  0.88285690    -0.95700
O87         O  0.64475703  0.82168363  0.86731757    -0.89000
O88         O  0.62004524  0.82089500  0.89379471    -0.91800
C89         C  0.62541808  0.65443559  0.87143596     1.01900
C90         C  0.57343217  0.73415751  0.88352748     1.14900
C91         C  0.63296594  0.73112971  0.82187902     1.05600
O92         O  0.67748953  0.73884469  0.84386734    -0.94000
O93         O  0.68101491  0.79850199  0.86008935    -0.89700
O94         O  0.67825340  0.82484209  0.88540638    -0.82900
C95         C  0.68677880  0.81603151  0.87227239     1.12300
O96         O  0.59160287  0.83239174  0.84399549    -0.96000
Zr97       Zr  0.61484356  0.82884424  0.86441337     1.88900
O98         O  0.64721173  0.87194669  0.89306620    -0.72600
O99         O  0.65826728  0.81363736  0.83119368    -0.51900
O100        O  0.62331683  0.85626777  0.83827251    -0.96500
O101        O  0.58972643  0.85652202  0.87558498    -0.53800
O102        O  0.62616004  0.88059384  0.87373671    -0.73100
C103        C  0.63766755  0.89045500  0.88399367     0.99200
O104        O  0.67281516  0.81238042  0.91783099    -0.61900
O105        O  0.60093088  0.73181509  0.92596665    -0.56700
O106        O  0.64034479  0.82638133  0.92530905    -0.93400
O107        O  0.61568029  0.79851794  0.93016883    -0.91800
O108        O  0.63582781  0.68584658  0.91772227    -0.92200
O109        O  0.66759967  0.71336303  0.91501840    -0.91000
C110        C  0.62796545  0.81714310  0.93482294     1.18100
H111        H  0.60978697  0.70448444  0.89413599     0.34000
H112        H  0.67170934  0.76123890  0.88473268     0.44900
H113        H  0.61626443  0.83948684  0.90031366     0.38400
H114        H  0.62112949  0.78426156  0.83784644     0.34900
H115        H  0.67183349  0.66767461  0.88972215     0.26700
H116        H  0.66704355  0.80398415  0.82369639     0.32600
H117        H  0.61988067  0.87935540  0.83982264     0.38500
H118        H  0.64189106  0.66465126  0.91717872     0.33000
H119        H  0.61146179  0.73094295  0.93283166     0.31800
H120        H  0.58076736  0.80058835  0.92442524     0.33500
H121        H  0.59379663  0.86943000  0.88537484     0.32500
H122        H  0.66817963  0.73581279  0.91964615     0.36500
H123        H  0.66828494  0.80017567  0.92769418     0.29200
H124        H  0.59022692  0.69980304  0.83558090     0.33500
H125        H  0.58949238  0.85603618  0.84229096     0.36300
H126        H  0.59244848  0.74247658  0.93344432     0.28900
H127        H  0.68159552  0.79745312  0.91321890     0.41800
H128        H  0.67298052  0.71626738  0.84422679     0.31800
H129        H  0.67020989  0.68415333  0.87189333     0.39500
H130        H  0.58274706  0.83887953  0.88067734     0.31300
H131        H  0.64768701  0.81312470  0.82437328     0.31400
H132        H  0.58784019  0.73757861  0.83260815     0.31600
Zr133      Zr  0.61255214  0.20047533  0.64439553     2.17500
O134        O  0.58950525  0.21875506  0.66292274    -0.50700
O135        O  0.61850698  0.25868679  0.64104536    -0.73900
O136        O  0.62111725  0.20588239  0.67407998    -0.80700
O137        O  0.57993158  0.18455452  0.60906753    -0.82500
O138        O  0.64637846  0.17970829  0.67796251    -0.78100
O139        O  0.58309448  0.20657622  0.63538536    -0.89700
O140        O  0.64079115  0.26490171  0.62291035    -0.75700
O141        O  0.64267612  0.20438703  0.64154253    -0.85200
O142        O  0.61790693  0.20880659  0.61490745    -0.84900
O143        O  0.62323519  0.14921981  0.65498072    -0.71600
O144        O  0.60112956  0.15352326  0.63010100    -0.83700
Zr145      Zr  0.64841559  0.11421730  0.60786466     2.26400
Zr146      Zr  0.65353020  0.15305483  0.65141706     2.06300
Zr147      Zr  0.60711131  0.16148956  0.60065777     2.10000
Zr148      Zr  0.64802581  0.21165741  0.61204104     1.78800
O149        O  0.58357441  0.12893363  0.58980366    -0.92500
O150        O  0.67515152  0.23434390  0.62131157    -0.40400
O151        O  0.63730279  0.16496403  0.59726030    -0.77000
O152        O  0.65984528  0.16148364  0.62195311    -0.95700
O153        O  0.64267656  0.10583518  0.63720005    -0.89000
O154        O  0.61825214  0.11053554  0.61054845    -0.91800
C155        C  0.62939325  0.27607812  0.63292242     1.01900
C156        C  0.57423922  0.19913509  0.62228946     1.14900
C157        C  0.63374945  0.19673669  0.68324401     1.05600
O158        O  0.67815300  0.18451353  0.66064136    -0.94000
O159        O  0.67992441  0.12509984  0.64483844    -0.89700
O160        O  0.67670824  0.10126247  0.61894742    -0.82900
C161        C  0.68537085  0.10821641  0.63226897     1.12300
O162        O  0.58873283  0.10259651  0.65977640    -0.96000
Zr163      Zr  0.61255201  0.10283408  0.63989193     1.88900
O164        O  0.64330666  0.05595167  0.61150086    -0.72600
O165        O  0.65685522  0.11112429  0.67308695    -0.51900
O166        O  0.61982015  0.07416663  0.66599679    -0.96500
O167        O  0.58705751  0.07739514  0.62817931    -0.53800
O168        O  0.62220787  0.04956436  0.63101153    -0.73100
C169        C  0.63333495  0.03848211  0.62065982     0.99200
O170        O  0.66953150  0.10448688  0.58569173    -0.61900
O171        O  0.60331433  0.20357337  0.57909141    -0.56700
O172        O  0.63940832  0.10619465  0.57855429    -0.93400
O173        O  0.61483943  0.13464092  0.57430892    -0.91800
O174        O  0.63935347  0.24299021  0.58725860    -0.92200
O175        O  0.66983982  0.21130078  0.59006881    -0.91000
C176        C  0.62700612  0.11611670  0.56927465     1.18100
H177        H  0.61242362  0.22844670  0.61083370     0.34000
H178        H  0.67195135  0.16310235  0.62011671     0.44900
H179        H  0.61384403  0.09266978  0.60387863     0.38400
H180        H  0.62022803  0.14603362  0.66674746     0.34900
H181        H  0.67552908  0.25653999  0.61633044     0.26700
H182        H  0.66589621  0.11961468  0.68063323     0.32600
H183        H  0.61515531  0.05184517  0.66458382     0.38500
H184        H  0.64576329  0.26376847  0.58810643     0.33000
H185        H  0.59672395  0.19277552  0.56997224     0.31800
H186        H  0.57821461  0.14282190  0.58101336     0.33500
H187        H  0.59113006  0.06288542  0.61898047     0.32500
H188        H  0.67097152  0.18800786  0.58684807     0.36500
H189        H  0.67900485  0.11982575  0.58800923     0.29200
H190        H  0.59379409  0.23852701  0.66875625     0.33500
H191        H  0.58601115  0.07928334  0.66181667     0.36300
H192        H  0.59524250  0.21942698  0.58411853     0.28900
H193        H  0.67423954  0.08244640  0.58795134     0.41800
H194        H  0.67401922  0.20729657  0.66146090     0.31800
H195        H  0.67369557  0.23810966  0.63362574     0.39500
H196        H  0.58108989  0.09534995  0.62223175     0.31300
H197        H  0.64632275  0.11238275  0.67996546     0.31400
H198        H  0.58848000  0.20191695  0.67188967     0.31600
Zr199      Zr  0.61128501  0.69869192  0.64659466     2.17500
O200        O  0.58811963  0.70460200  0.66704328    -0.50700
O201        O  0.61515540  0.75763630  0.64380208    -0.73900
O202        O  0.62129485  0.70735793  0.67556619    -0.80700
O203        O  0.57873097  0.68513433  0.61107568    -0.82500
O204        O  0.64693002  0.68211415  0.67883059    -0.78100
O205        O  0.58228880  0.70858724  0.63704674    -0.89700
O206        O  0.63617531  0.76621720  0.62444449    -0.75700
O207        O  0.64115798  0.70597266  0.64276200    -0.85200
O208        O  0.61536368  0.70759360  0.61700189    -0.84900
O209        O  0.62398504  0.64877820  0.65656763    -0.71600
O210        O  0.60062220  0.65082618  0.63249768    -0.83700
Zr211      Zr  0.64832015  0.61742064  0.60843584     2.26400
Zr212      Zr  0.65395033  0.65594761  0.65210589     2.06300
Zr213      Zr  0.60535198  0.65953686  0.60287066     2.10000
Zr214      Zr  0.64514061  0.71428040  0.61313900     1.78800
O215        O  0.58235514  0.62211640  0.59567072    -0.92500
O216        O  0.67147137  0.74173769  0.62108485    -0.40400
O217        O  0.63522031  0.66682860  0.59847345    -0.77000
O218        O  0.65892057  0.66542236  0.62252221    -0.95700
O219        O  0.64387459  0.60827348  0.63793302    -0.89000
O220        O  0.61843309  0.61007219  0.61223347    -0.91800
C221        C  0.62501373  0.77615495  0.63505685     1.01900
C222        C  0.57338040  0.70127434  0.62395333     1.14900
C223        C  0.63430061  0.69885886  0.68437522     1.05600
O224        O  0.67790768  0.69006351  0.66045831    -0.94000
O225        O  0.68016812  0.62782015  0.64458992    -0.89700
O226        O  0.67646802  0.60282826  0.61901872    -0.82900
C227        C  0.68533246  0.61019272  0.63214714     1.12300
O228        O  0.59225813  0.60004757  0.66378357    -0.96000
Zr229      Zr  0.61407589  0.60154351  0.64175315     1.88900
O230        O  0.64525609  0.55840806  0.61166874    -0.72600
O231        O  0.65882804  0.61527042  0.67414023    -0.51900
O232        O  0.62377172  0.57152785  0.66664432    -0.96500
O233        O  0.58821375  0.57420324  0.63223249    -0.53800
O234        O  0.62464636  0.54974027  0.63152352    -0.73100
C235        C  0.63587717  0.53985745  0.62093438     0.99200
O236        O  0.67048488  0.61954160  0.58663176    -0.61900
O237        O  0.59867916  0.69761855  0.58004609    -0.56700
O238        O  0.63793075  0.60610919  0.57986924    -0.93400
O239        O  0.61316052  0.63421297  0.57604815    -0.91800
O240        O  0.63433686  0.74464194  0.58885919    -0.92200
O241        O  0.66608859  0.71718973  0.59041035    -0.91000
C242        C  0.62530353  0.61576783  0.57081085     1.18100
H243        H  0.60919921  0.72669745  0.61325700     0.34000
H244        H  0.67096703  0.66789391  0.62035158     0.44900
H245        H  0.61433235  0.59175119  0.60569630     0.38400
H246        H  0.62150270  0.64545997  0.66844009     0.34900
H247        H  0.67093214  0.76327955  0.61535777     0.26700
H248        H  0.66742194  0.62530825  0.68168855     0.32600
H249        H  0.61910786  0.54918697  0.66527504     0.38500
H250        H  0.64017889  0.76607697  0.58938987     0.33000
H251        H  0.58706992  0.69146185  0.57634093     0.31800
H252        H  0.57702188  0.63176945  0.58545698     0.33500
H253        H  0.59122413  0.56410286  0.62124173     0.32500
H254        H  0.66865474  0.69412247  0.58766446     0.36500
H255        H  0.66595952  0.63398389  0.57760856     0.29200
H256        H  0.59017061  0.72558806  0.67294186     0.33500
H257        H  0.58978287  0.57662506  0.66575569     0.36300
H258        H  0.59720677  0.71913613  0.58558739     0.28900
H259        H  0.67985072  0.63258458  0.59160602     0.41800
H260        H  0.68271985  0.69812374  0.64963548     0.31800
H261        H  0.67005151  0.74686146  0.63325789     0.39500
H262        H  0.58032499  0.59219680  0.62924538     0.31300
H263        H  0.64821263  0.61506433  0.68093967     0.31400
H264        H  0.59005505  0.68748669  0.67572079     0.31600
Zr265      Zr  0.39741364  0.20552762  0.86012719     2.17500
O266        O  0.42141789  0.21559586  0.84113633    -0.50700
O267        O  0.39349421  0.26430289  0.86321113    -0.73900
O268        O  0.38895354  0.21391207  0.83056834    -0.80700
O269        O  0.42905705  0.18814049  0.89616439    -0.82500
O270        O  0.36365648  0.18830376  0.82595000    -0.78100
O271        O  0.42648100  0.21182792  0.87014080    -0.89700
O272        O  0.37188469  0.27272527  0.88191491    -0.75700
O273        O  0.36741066  0.21260986  0.86257339    -0.85200
O274        O  0.39196956  0.21441720  0.88956128    -0.84900
O275        O  0.38542687  0.15558893  0.84938702    -0.71600
O276        O  0.40737639  0.15755419  0.87461370    -0.83700
Zr277      Zr  0.35882317  0.12379785  0.89634547     2.26400
Zr278      Zr  0.35525774  0.16259635  0.85243484     2.06300
Zr279      Zr  0.40139527  0.16630943  0.90401685     2.10000
Zr280      Zr  0.36195270  0.22055407  0.89200875     1.78800
O281        O  0.42416653  0.13140828  0.91459171    -0.92500
O282        O  0.33651291  0.24823988  0.88172359    -0.40400
O283        O  0.37132673  0.17313561  0.90712598    -0.77000
O284        O  0.34886860  0.17177969  0.88180377    -0.95700
O285        O  0.36458018  0.11466870  0.86704561    -0.89000
O286        O  0.38886322  0.11684333  0.89391049    -0.91800
C287        C  0.38341360  0.28272518  0.87171986     1.01900
C288        C  0.43505591  0.20339445  0.88326057     1.14900
C289        C  0.37649697  0.20520556  0.82104752     1.05600
O290        O  0.33210436  0.19725769  0.84254889    -0.94000
O291        O  0.32829511  0.13632438  0.85887356    -0.89700
O292        O  0.33102997  0.11053047  0.88436828    -0.82900
C293        C  0.32258102  0.11875108  0.87109718     1.12300
O294        O  0.41833178  0.10524933  0.84480827    -0.96000
Zr295      Zr  0.39453460  0.10821536  0.86465926     1.88900
O296        O  0.36212962  0.06497536  0.89347576    -0.72600
O297        O  0.35093606  0.12143006  0.83054526    -0.51900
O298        O  0.38634477  0.08085153  0.83846748    -0.96500
O299        O  0.41915301  0.07948106  0.87618921    -0.53800
O300        O  0.38309395  0.05639176  0.87401302    -0.73100
C301        C  0.37171483  0.04648370  0.88444760     0.99200
O302        O  0.33571860  0.12404484  0.91719032    -0.61900
O303        O  0.40602659  0.20837719  0.92537306    -0.56700
O304        O  0.36811298  0.11153066  0.92522069    -0.93400
O305        O  0.39263464  0.13969506  0.93023779    -0.91800
O306        O  0.36974150  0.25076912  0.91743605    -0.92200
O307        O  0.33896898  0.22173510  0.91276617    -0.91000
C308        C  0.38039203  0.12085361  0.93482888     1.18100
H309        H  0.39794826  0.23344618  0.89371326     0.34000
H310        H  0.33677028  0.17435132  0.88344928     0.44900
H311        H  0.39271177  0.09849483  0.90059468     0.38400
H312        H  0.38853734  0.15231922  0.83764856     0.34900
H313        H  0.33614228  0.26907672  0.88811303     0.26700
H314        H  0.34233110  0.13111595  0.82287180     0.32600
H315        H  0.38945433  0.05764677  0.84017435     0.38500
H316        H  0.36459877  0.27269241  0.91589437     0.33000
H317        H  0.39650021  0.20573810  0.93350259     0.31800
H318        H  0.42825286  0.14242391  0.92500220     0.33500
H319        H  0.41457214  0.06471359  0.88503845     0.32500
H320        H  0.34026542  0.20117175  0.91924949     0.36500
H321        H  0.33980974  0.13767879  0.92672082     0.29200
H322        H  0.41907316  0.23685303  0.83562193     0.33500
H323        H  0.42026322  0.08166172  0.84274626     0.36300
H324        H  0.41621901  0.20098914  0.93167915     0.28900
H325        H  0.32656297  0.13749997  0.91213379     0.41800
H326        H  0.33654836  0.21982798  0.84350110     0.31800
H327        H  0.33934795  0.25483368  0.86998393     0.39500
H328        H  0.42548536  0.09637758  0.88256934     0.31300
H329        H  0.36160899  0.12148456  0.82384732     0.31400
H330        H  0.42050018  0.19911505  0.83198334     0.31600
Zr331      Zr  0.39681277  0.70702356  0.86182185     2.17500
O332        O  0.41996910  0.72410944  0.84311136    -0.50700
O333        O  0.39241398  0.76544093  0.86659892    -0.73900
O334        O  0.38768799  0.71574545  0.83252323    -0.80700
O335        O  0.42948983  0.68619963  0.89665073    -0.82500
O336        O  0.36155738  0.69282490  0.82874573    -0.78100
O337        O  0.42646869  0.71009609  0.87074021    -0.89700
O338        O  0.37104359  0.77185205  0.88577754    -0.75700
O339        O  0.36691707  0.71369751  0.86561089    -0.85200
O340        O  0.39231558  0.71310728  0.89155900    -0.84900
O341        O  0.38434335  0.65801079  0.85032877    -0.71600
O342        O  0.40729178  0.65771688  0.87463432    -0.83700
Zr343      Zr  0.35942146  0.62116663  0.89725624     2.26400
Zr344      Zr  0.35430257  0.66463522  0.85479696     2.06300
Zr345      Zr  0.40210246  0.66359085  0.90438293     2.10000
Zr346      Zr  0.36242386  0.71857403  0.89538100     1.78800
O347        O  0.42491567  0.62689002  0.91298982    -0.92500
O348        O  0.33585359  0.74492790  0.88719400    -0.40400
O349        O  0.37217295  0.66961089  0.90875071    -0.77000
O350        O  0.34896919  0.67062358  0.88455269    -0.95700
O351        O  0.36422078  0.61526048  0.86756513    -0.89000
O352        O  0.38936457  0.61492686  0.89354794    -0.91800
C353        C  0.38228746  0.78295488  0.87558805     1.01900
C354        C  0.43528103  0.70144424  0.88367995     1.14900
C355        C  0.37456396  0.70882717  0.82352212     1.05600
O356        O  0.33066237  0.70089610  0.84810062    -0.94000
O357        O  0.32775110  0.63709990  0.86136265    -0.89700
O358        O  0.33129615  0.60843642  0.88590343    -0.82900
C359        C  0.32242237  0.61818863  0.87320320     1.12300
O360        O  0.41601245  0.60853146  0.84196570    -0.96000
Zr361      Zr  0.39409945  0.60930494  0.86392432     1.88900
O362        O  0.36328519  0.56268057  0.89304787    -0.72600
O363        O  0.34848359  0.62690725  0.83162012    -0.51900
O364        O  0.38506010  0.58203818  0.83797683    -0.96500
O365        O  0.41964093  0.58124434  0.87382084    -0.53800
O366        O  0.38351381  0.55654545  0.87258517    -0.73100
C367        C  0.37267894  0.54535196  0.88321606     0.99200
O368        O  0.33682911  0.61903541  0.91866018    -0.61900
O369        O  0.40764186  0.70377272  0.92649031    -0.56700
O370        O  0.36955861  0.60770874  0.92567378    -0.93400
O371        O  0.39414476  0.63584679  0.93041226    -0.91800
O372        O  0.37249275  0.74570509  0.92094753    -0.92200
O373        O  0.34142353  0.72012742  0.91809894    -0.91000
C374        C  0.38206189  0.61674553  0.93505916     1.18100
H375        H  0.39843045  0.73174715  0.89599124     0.34000
H376        H  0.33691363  0.67290336  0.88669233     0.44900
H377        H  0.39351036  0.59610123  0.89966310     0.38400
H378        H  0.38695011  0.65556331  0.83841617     0.34900
H379        H  0.33578595  0.76593303  0.89342464     0.26700
H380        H  0.34074787  0.63902200  0.82395470     0.32600
H381        H  0.38935836  0.55935600  0.83898440     0.38500
H382        H  0.36786942  0.76817947  0.92024185     0.33000
H383        H  0.39849087  0.70039557  0.93497173     0.31800
H384        H  0.42977868  0.63697851  0.92330710     0.33500
H385        H  0.41596841  0.56819355  0.88375698     0.32500
H386        H  0.33812161  0.69703497  0.91980920     0.36500
H387        H  0.34101682  0.63211068  0.92835395     0.29200
H388        H  0.41615880  0.74475169  0.83777313     0.33500
H389        H  0.41927722  0.58528591  0.84060680     0.36300
H390        H  0.41811123  0.69593715  0.93215447     0.28900
H391        H  0.32739276  0.63250719  0.91414220     0.41800
H392        H  0.33596839  0.72247136  0.84598993     0.31800
H393        H  0.33756201  0.75125058  0.87520052     0.39500
H394        H  0.42685036  0.59874307  0.87865299     0.31300
H395        H  0.35934322  0.62534861  0.82528109     0.31400
H396        H  0.42026503  0.70788546  0.83380362     0.31600
Zr397      Zr  0.39861897  0.23693881  0.64429432     2.17500
O398        O  0.42212200  0.22322050  0.66326242    -0.50700
O399        O  0.39448130  0.17837483  0.64032075    -0.73900
O400        O  0.39001113  0.22886376  0.67382337    -0.80700
O401        O  0.43068260  0.25659545  0.60868642    -0.82500
O402        O  0.36435327  0.25335932  0.67815862    -0.78100
O403        O  0.42791949  0.23189003  0.63443628    -0.89700
O404        O  0.37302385  0.17084823  0.62138798    -0.75700
O405        O  0.36864709  0.22991763  0.64129712    -0.85200
O406        O  0.39352929  0.22958616  0.61474769    -0.84900
O407        O  0.38630753  0.28638096  0.65538086    -0.71600
O408        O  0.40886235  0.28555518  0.63060562    -0.83700
Zr409      Zr  0.36038048  0.32113270  0.60887811     2.26400
Zr410      Zr  0.35618295  0.27945791  0.65175602     2.06300
Zr411      Zr  0.40304790  0.27854853  0.60110934     2.10000
Zr412      Zr  0.36358383  0.22362528  0.61170821     1.78800
O413        O  0.42523521  0.31618226  0.59189764    -0.92500
O414        O  0.33746919  0.19672882  0.62093764    -0.40400
O415        O  0.37297764  0.27219174  0.59768981    -0.77000
O416        O  0.35020534  0.27191058  0.62217755    -0.95700
O417        O  0.36586534  0.32850695  0.63830958    -0.89000
O418        O  0.39041561  0.32773577  0.61158190    -0.91800
C419        C  0.38447039  0.16036398  0.63151675     1.01900
C420        C  0.43658889  0.24078970  0.62142136     1.14900
C421        C  0.37732049  0.23701174  0.68318831     1.05600
O422        O  0.33306958  0.24343938  0.66043706    -0.94000
O423        O  0.32901841  0.30497532  0.64548186    -0.89700
O424        O  0.33137903  0.32907152  0.61955103    -0.82900
C425        C  0.32297085  0.32109106  0.63291186     1.12300
O426        O  0.41922512  0.33398470  0.66140202    -0.96000
Zr427      Zr  0.39590401  0.33437000  0.64101353     1.88900
O428        O  0.36386231  0.37969870  0.61353898    -0.72600
O429        O  0.35085454  0.31961232  0.67391470    -0.51900
O430        O  0.38779895  0.36177307  0.66723273    -0.96500
O431        O  0.42100486  0.36292074  0.63035442    -0.53800
O432        O  0.38538614  0.38709976  0.63242462    -0.73100
C433        C  0.37373459  0.39764773  0.62254477     0.99200
O434        O  0.33979745  0.33231615  0.58644358    -0.61900
O435        O  0.40861182  0.23860233  0.57884640    -0.56700
O436        O  0.36905359  0.32988790  0.57953737    -0.93400
O437        O  0.39427480  0.30390407  0.57478080    -0.91800
O438        O  0.37313200  0.19663489  0.58587708    -0.92200
O439        O  0.34137914  0.22120297  0.59022058    -0.91000
C440        C  0.38153899  0.32120043  0.57002775     1.18100
H441        H  0.39956927  0.21077478  0.61045737     0.34000
H442        H  0.33816923  0.26892850  0.62026814     0.44900
H443        H  0.39433743  0.34635765  0.60512702     0.38400
H444        H  0.38918377  0.28935705  0.66716888     0.34900
H445        H  0.33780448  0.17489860  0.61554257     0.26700
H446        H  0.34226383  0.30921788  0.68136748     0.32600
H447        H  0.39213940  0.38438451  0.66604322     0.38500
H448        H  0.36862842  0.17409638  0.58672485     0.33000
H449        H  0.41692761  0.24942589  0.57126538     0.31800
H450        H  0.43015096  0.30594871  0.58162802     0.33500
H451        H  0.41709820  0.37512363  0.62024211     0.32500
H452        H  0.33931972  0.24431288  0.58711519     0.36500
H453        H  0.33081558  0.31548395  0.58764727     0.29200
H454        H  0.41898069  0.20227717  0.66873628     0.33500
H455        H  0.42194918  0.35721804  0.66359961     0.36300
H456        H  0.41518985  0.22090255  0.58436108     0.28900
H457        H  0.33424557  0.35321595  0.58953796     0.41800
H458        H  0.33833932  0.22153015  0.66135766     0.31800
H459        H  0.33923008  0.19228213  0.63314483     0.39500
H460        H  0.42838187  0.34542905  0.62574622     0.31300
H461        H  0.36141016  0.31993705  0.68076051     0.31400
H462        H  0.42187482  0.23970349  0.67245971     0.31600
Zr463      Zr  0.39766507  0.73714918  0.64733849     2.17500
O464        O  0.42082705  0.71929808  0.66580879    -0.50700
O465        O  0.39278765  0.67853617  0.64428785    -0.73900
O466        O  0.38929617  0.73184963  0.67708181    -0.80700
O467        O  0.42953812  0.75490559  0.61128356    -0.82500
O468        O  0.36326300  0.75514483  0.68087940    -0.78100
O469        O  0.42725989  0.73413277  0.63798391    -0.89700
O470        O  0.37105369  0.67081704  0.62570918    -0.75700
O471        O  0.36756712  0.73157634  0.64487339    -0.85200
O472        O  0.39201348  0.72787907  0.61800231    -0.84900
O473        O  0.38615436  0.78779955  0.65787785    -0.71600
O474        O  0.40803242  0.78443669  0.63257969    -0.83700
Zr475      Zr  0.35986538  0.82052781  0.61080734     2.26400
Zr476      Zr  0.35589168  0.78228770  0.65463803     2.06300
Zr477      Zr  0.40177289  0.77549555  0.60326594     2.10000
Zr478      Zr  0.36190807  0.72338937  0.61554183     1.78800
O479        O  0.42495138  0.80800715  0.59156908    -0.92500
O480        O  0.33621520  0.69691811  0.62614725    -0.40400
O481        O  0.37163867  0.77032564  0.60031576    -0.77000
O482        O  0.34932463  0.77291467  0.62535298    -0.95700
O483        O  0.36577261  0.82988833  0.64002341    -0.89000
O484        O  0.38999082  0.82588884  0.61310415    -0.91800
C485        C  0.38246428  0.66043989  0.63589665     1.01900
C486        C  0.43575700  0.74157018  0.62460578     1.14900
C487        C  0.37631424  0.73943024  0.68616006     1.05600
O488        O  0.33183877  0.75035114  0.66494233    -0.94000
O489        O  0.32904018  0.80871679  0.64834094    -0.89700
O490        O  0.33152471  0.83188628  0.62219298    -0.82900
C491        C  0.32317891  0.82491659  0.63572751     1.12300
O492        O  0.41883712  0.83736069  0.66306806    -0.96000
Zr493      Zr  0.39586575  0.83444056  0.64234811     1.88900
O494        O  0.36459517  0.87909766  0.61369458    -0.72600
O495        O  0.35260453  0.82427892  0.67627118    -0.51900
O496        O  0.38674413  0.86379416  0.66766323    -0.96500
O497        O  0.42179699  0.85948552  0.63130825    -0.53800
O498        O  0.38667904  0.88683667  0.63190504    -0.73100
C499        C  0.37509564  0.89716593  0.62188337     0.99200
O500        O  0.33838010  0.82852099  0.58884911    -0.61900
O501        O  0.40541964  0.73194519  0.58248527    -0.56700
O502        O  0.36799123  0.82795194  0.58118179    -0.93400
O503        O  0.39311259  0.80136055  0.57687697    -0.91800
O504        O  0.36994591  0.69498038  0.58962335    -0.92200
O505        O  0.33862620  0.72202331  0.59520178    -0.91000
C506        C  0.38048453  0.81869030  0.57181404     1.18100
H507        H  0.39775987  0.70855695  0.61393370     0.34000
H508        H  0.33720615  0.77049323  0.62372990     0.44900
H509        H  0.39412480  0.84379379  0.60627634     0.38400
H510        H  0.38917751  0.79137143  0.66959639     0.34900
H511        H  0.33640819  0.67475475  0.62112835     0.26700
H512        H  0.34289614  0.81671716  0.68328064     0.32600
H513        H  0.39039415  0.88667138  0.66582479     0.38500
H514        H  0.36623734  0.67211801  0.59139404     0.33000
H515        H  0.40995204  0.74296297  0.57226209     0.31800
H516        H  0.42925785  0.79506658  0.58185991     0.33500
H517        H  0.41815443  0.87246207  0.62135578     0.32500
H518        H  0.33654787  0.74527088  0.59234797     0.36500
H519        H  0.32937831  0.81215673  0.59118356     0.29200
H520        H  0.41666191  0.69936667  0.67162773     0.33500
H521        H  0.42106316  0.86096035  0.66475549     0.36300
H522        H  0.41507797  0.71870664  0.58672383     0.28900
H523        H  0.33305802  0.84998310  0.59121833     0.41800
H524        H  0.33583615  0.72741778  0.66471238     0.31800
H525        H  0.33841856  0.69328538  0.63836154     0.39500
H526        H  0.42834823  0.84109098  0.62641528     0.31300
H527        H  0.36265698  0.82178560  0.68371033     0.31400
H528        H  0.42176398  0.73607790  0.67480658     0.31600
Zr529      Zr  0.89609658  0.97997455  0.64273079     2.17500
O530        O  0.91932279  0.96327309  0.66136740    -0.50700
O531        O  0.89074073  0.92190065  0.63844418    -0.73900
O532        O  0.88712921  0.97138768  0.67212188    -0.80700
O533        O  0.92893066  0.00087940  0.60815041    -0.82500
O534        O  0.86153622  0.99611086  0.67648472    -0.78100
O535        O  0.92575219  0.97566984  0.63369855    -0.89700
O536        O  0.86928379  0.91620136  0.61933801    -0.75700
O537        O  0.86598459  0.97552872  0.63985165    -0.85200
O538        O  0.89078987  0.97340354  0.61310237    -0.84900
O539        O  0.88484138  0.02988068  0.65433656    -0.71600
O540        O  0.90713013  0.02812628  0.62932009    -0.83700
Zr541      Zr  0.85964134  0.06735413  0.60796688     2.26400
Zr542      Zr  0.85457952  0.02561713  0.65071892     2.06300
Zr543      Zr  0.90131967  0.02196581  0.59978320     2.10000
Zr544      Zr  0.86062677  0.96995222  0.61029801     1.78800
O545        O  0.92475346  0.05509242  0.58908834    -0.92500
O546        O  0.83472145  0.94352066  0.62041437    -0.40400
O547        O  0.87116716  0.01778584  0.59636131    -0.77000
O548        O  0.84832038  0.01901903  0.62115848    -0.95700
O549        O  0.86520542  0.07402624  0.63740779    -0.89000
O550        O  0.88977354  0.07178618  0.61068333    -0.91800
C551        C  0.88039266  0.90475302  0.62956900     1.01900
C552        C  0.93470618  0.98523433  0.62099490     1.14900
C553        C  0.87429070  0.97903699  0.68140249     1.05600
O554        O  0.82992210  0.99296606  0.65871117    -0.94000
O555        O  0.82839301  0.05488109  0.64485036    -0.89700
O556        O  0.83139866  0.07963331  0.61915533    -0.82900
C557        C  0.82287272  0.07227157  0.63250539     1.12300
O558        O  0.91900388  0.07665362  0.66009673    -0.96000
Zr559      Zr  0.89528311  0.07751724  0.64018015     1.88900
O560        O  0.86447478  0.12540104  0.61242885    -0.72600
O561        O  0.85093206  0.06472356  0.67371818    -0.51900
O562        O  0.88732124  0.10258309  0.66705713    -0.96500
O563        O  0.92061328  0.10517612  0.62939914    -0.53800
O564        O  0.88533128  0.13101301  0.63220594    -0.73100
C565        C  0.87428847  0.14246673  0.62190987     0.99200
O566        O  0.83875211  0.07804166  0.58575069    -0.61900
O567        O  0.90577528  0.98087403  0.57784242    -0.56700
O568        O  0.86817241  0.07744462  0.57883815    -0.93400
O569        O  0.89308386  0.05044183  0.57406490    -0.91800
O570        O  0.86774114  0.94152806  0.58411116    -0.92200
O571        O  0.83747461  0.97282864  0.58981682    -0.91000
C572        C  0.88067076  0.06869131  0.56940304     1.18100
H573        H  0.89642585  0.95427362  0.60865176     0.34000
H574        H  0.83618663  0.01739911  0.61933347     0.44900
H575        H  0.89407984  0.09025851  0.60437730     0.38400
H576        H  0.88775573  0.03212180  0.66615611     0.34900
H577        H  0.83408923  0.92277905  0.61398827     0.26700
H578        H  0.84142286  0.05581723  0.68056721     0.32600
H579        H  0.89118484  0.12552341  0.66617283     0.38500
H580        H  0.86168609  0.92033438  0.58491948     0.33000
H581        H  0.91098084  0.99294230  0.56825288     0.31800
H582        H  0.92945290  0.04245964  0.57944294     0.33500
H583        H  0.91648286  0.12039883  0.62054638     0.32500
H584        H  0.83761448  0.99574369  0.58574868     0.36500
H585        H  0.82936607  0.06235278  0.58774222     0.29200
H586        H  0.91565983  0.94245149  0.66660134     0.33500
H587        H  0.92132739  0.09982648  0.66286846     0.36300
H588        H  0.91507022  0.96683814  0.58217388     0.28900
H589        H  0.83387204  0.09981145  0.58832668     0.41800
H590        H  0.83408718  0.97014764  0.65880667     0.31800
H591        H  0.83735368  0.93670274  0.63216935     0.39500
H592        H  0.92685050  0.08808640  0.62304076     0.31300
H593        H  0.86111241  0.06192712  0.68095938     0.31400
H594        H  0.91948533  0.97935778  0.67076218     0.31600
Zr595      Zr  0.89816874  0.48189596  0.64386327     2.17500
O596        O  0.92215194  0.47136534  0.66275159    -0.50700
O597        O  0.89357063  0.42326525  0.64151203    -0.73900
O598        O  0.88949613  0.47382456  0.67339277    -0.80700
O599        O  0.92953353  0.49845766  0.60733528    -0.82500
O600        O  0.86364551  0.49766652  0.67761263    -0.78100
O601        O  0.92719057  0.47507621  0.63347186    -0.89700
O602        O  0.87144655  0.41488117  0.62345852    -0.75700
O603        O  0.86820887  0.47466984  0.64112009    -0.85200
O604        O  0.89295439  0.47316320  0.61439094    -0.84900
O605        O  0.88586117  0.53148459  0.65470808    -0.71600
O606        O  0.90816466  0.52993422  0.62946368    -0.83700
Zr607      Zr  0.85952230  0.56372458  0.60773962     2.26400
Zr608      Zr  0.85572591  0.52436148  0.65130524     2.06300
Zr609      Zr  0.90214944  0.52161174  0.60003935     2.10000
Zr610      Zr  0.86302383  0.46670701  0.61168741     1.78800
O611        O  0.92512196  0.55657953  0.58992015    -0.92500
O612        O  0.83652462  0.44100137  0.62067491    -0.40400
O613        O  0.87215588  0.51458238  0.59680027    -0.77000
O614        O  0.84967047  0.51524592  0.62190083    -0.95700
O615        O  0.86516859  0.57253268  0.63706349    -0.89000
O616        O  0.88954930  0.57081325  0.61033157    -0.91800
C617        C  0.88294712  0.40493219  0.63367251     1.01900
C618        C  0.93560357  0.48311388  0.62013504     1.14900
C619        C  0.87664608  0.48144978  0.68267218     1.05600
O620        O  0.83239487  0.49072153  0.66178993    -0.94000
O621        O  0.82854193  0.54951617  0.64448419    -0.89700
O622        O  0.83134464  0.57598888  0.61919202    -0.82900
C623        C  0.82276701  0.56702014  0.63227192     1.12300
O624        O  0.91854397  0.58047145  0.65995140    -0.96000
Zr625      Zr  0.89516626  0.57889289  0.63962735     1.88900
O626        O  0.86269179  0.62250646  0.61133953    -0.72600
O627        O  0.85175545  0.56641931  0.67278438    -0.51900
O628        O  0.88681561  0.60750225  0.66543059    -0.96500
O629        O  0.92036551  0.60682010  0.62877471    -0.53800
O630        O  0.88424877  0.63082730  0.63014872    -0.73100
C631        C  0.87256406  0.64084840  0.62013832     0.99200
O632        O  0.83678871  0.56305247  0.58653874    -0.61900
O633        O  0.90655573  0.48105251  0.57786966    -0.56700
O634        O  0.86897772  0.57723783  0.57910888    -0.93400
O635        O  0.89361321  0.54938452  0.57414668    -0.91800
O636        O  0.87317836  0.43500392  0.58757120    -0.92200
O637        O  0.84169930  0.46437700  0.58932669    -0.91000
C638        C  0.88140944  0.56828131  0.56958818     1.18100
H639        H  0.89901482  0.45421992  0.61026826     0.34000
H640        H  0.83759911  0.51245565  0.62012959     0.44900
H641        H  0.89341940  0.58930355  0.60374818     0.38400
H642        H  0.88879144  0.53470814  0.66648506     0.34900
H643        H  0.83694377  0.41872647  0.61579839     0.26700
H644        H  0.84242988  0.55805643  0.68004275     0.32600
H645        H  0.89053978  0.63039327  0.66371626     0.38500
H646        H  0.86661004  0.41436422  0.58804440     0.33000
H647        H  0.89587336  0.48128740  0.57121100     0.31800
H648        H  0.92938828  0.54570100  0.57952685     0.33500
H649        H  0.91636443  0.61967063  0.61892852     0.32500
H650        H  0.83757809  0.48715034  0.58821754     0.36500
H651        H  0.84111583  0.54943245  0.57709710     0.29200
H652        H  0.91950263  0.45054229  0.66858822     0.33500
H653        H  0.92061257  0.60390420  0.66230929     0.36300
H654        H  0.91515202  0.49095481  0.57023477     0.28900
H655        H  0.82757260  0.54947637  0.59143604     0.41800
H656        H  0.83682097  0.46807337  0.66148736     0.31800
H657        H  0.83787428  0.43760652  0.63303288     0.39500
H658        H  0.92742066  0.58923962  0.62375899     0.31300
H659        H  0.86203519  0.56505165  0.68000430     0.31400
H660        H  0.92150230  0.48834841  0.67167035     0.31600
Zr661      Zr  0.89830951  0.44803601  0.85877592     2.17500
O662        O  0.92131065  0.46297526  0.83939701    -0.50700
O663        O  0.89450689  0.50659657  0.86266525    -0.73900
O664        O  0.88906527  0.45564296  0.82936976    -0.80700
O665        O  0.93093633  0.42820568  0.89376528    -0.82500
O666        O  0.86273775  0.43339399  0.82589849    -0.78100
O667        O  0.92806705  0.45138763  0.86766873    -0.89700
O668        O  0.87393390  0.51505436  0.88249945    -0.75700
O669        O  0.86852034  0.45627468  0.86270790    -0.85200
O670        O  0.89401490  0.45581079  0.88846194    -0.84900
O671        O  0.88510631  0.39914731  0.84805165    -0.71600
O672        O  0.90838153  0.39906590  0.87219885    -0.83700
Zr673      Zr  0.86007701  0.36575703  0.89537913     2.26400
Zr674      Zr  0.85518336  0.40742138  0.85252704     2.06300
Zr675      Zr  0.90341190  0.40653675  0.90183782     2.10000
Zr676      Zr  0.86418983  0.46277519  0.89241424     1.78800
O677        O  0.92547738  0.36764610  0.90978836    -0.92500
O678        O  0.83851733  0.49139955  0.88346232    -0.40400
O679        O  0.87353389  0.41405420  0.90616349    -0.77000
O680        O  0.84996241  0.41511856  0.88225783    -0.95700
O681        O  0.86465962  0.35809507  0.86580607    -0.89000
O682        O  0.88995562  0.35788107  0.89179589    -0.91800
C683        C  0.88498916  0.52498512  0.87179497     1.01900
C684        C  0.93684356  0.44296617  0.88069817     1.14900
C685        C  0.87591161  0.44859384  0.82042164     1.05600
O686        O  0.83217394  0.44458475  0.84498297    -0.94000
O687        O  0.82814493  0.38182036  0.85914124    -0.89700
O688        O  0.83102654  0.35749673  0.88495154    -0.82900
C689        C  0.82238227  0.36542982  0.87175622     1.12300
O690        O  0.91612731  0.35101502  0.83998378    -0.96000
Zr691      Zr  0.89450616  0.35081140  0.86221138     1.88900
O692        O  0.86363307  0.30704399  0.89179023    -0.72600
O693        O  0.84904173  0.36783068  0.83031423    -0.51900
O694        O  0.88427725  0.32185102  0.83722559    -0.96500
O695        O  0.92035117  0.32249786  0.87103025    -0.53800
O696        O  0.88462147  0.29852724  0.87237647    -0.73100
C697        C  0.87333721  0.28858213  0.88288030     0.99200
O698        O  0.83939137  0.35562018  0.91790384    -0.61900
O699        O  0.91004655  0.44545356  0.92429026    -0.56700
O700        O  0.86902141  0.35873239  0.92474717    -0.93400
O701        O  0.89511444  0.38198654  0.92851360    -0.91800
O702        O  0.87422105  0.48895267  0.91828108    -0.92200
O703        O  0.84238494  0.46565893  0.91436142    -0.91000
C704        C  0.88200768  0.36634452  0.93380589     1.18100
H705        H  0.90035251  0.47438924  0.89259819     0.34000
H706        H  0.83798272  0.41830122  0.88443850     0.44900
H707        H  0.89390348  0.33921091  0.89817914     0.38400
H708        H  0.88762153  0.39596427  0.83618534     0.34900
H709        H  0.83886110  0.51252691  0.88955852     0.26700
H710        H  0.84104633  0.37920098  0.82262247     0.32600
H711        H  0.88910587  0.29957421  0.83816963     0.38500
H712        H  0.87087136  0.51216307  0.91708082     0.33000
H713        H  0.91838722  0.43398512  0.93157532     0.31800
H714        H  0.93214908  0.37890319  0.91868166     0.33500
H715        H  0.91733098  0.31134796  0.88175865     0.32500
H716        H  0.83848436  0.44280614  0.91579344     0.36500
H717        H  0.83041932  0.37242218  0.91651743     0.29200
H718        H  0.91771498  0.48355094  0.83382493     0.33500
H719        H  0.91833464  0.32776636  0.83732837     0.36300
H720        H  0.91671946  0.46299801  0.91875413     0.28900
H721        H  0.83383315  0.33459477  0.91507448     0.41800
H722        H  0.83763481  0.46634038  0.84413595     0.31800
H723        H  0.84063341  0.49727157  0.87146239     0.39500
H724        H  0.92824484  0.34014276  0.87448945     0.31300
H725        H  0.85974524  0.36601945  0.82373396     0.31400
H726        H  0.92125195  0.44626035  0.83032149     0.31600
Zr727      Zr  0.89629423  0.95038708  0.85786257     2.17500
O728        O  0.91895433  0.96795757  0.83868121    -0.50700
O729        O  0.89026982  0.00837121  0.86149516    -0.73900
O730        O  0.88725127  0.95552340  0.82820330    -0.80700
O731        O  0.92891630  0.93657995  0.89346795    -0.82500
O732        O  0.86236555  0.92802807  0.82436671    -0.78100
O733        O  0.92554283  0.95875980  0.86718784    -0.89700
O734        O  0.86903566  0.01404760  0.88088978    -0.75700
O735        O  0.86614993  0.95318678  0.86078412    -0.85200
O736        O  0.89083052  0.95840242  0.88736313    -0.84900
O737        O  0.88601499  0.89881931  0.84743339    -0.71600
O738        O  0.90822236  0.90398864  0.87224355    -0.83700
Zr739      Zr  0.86111290  0.86310592  0.89446873     2.26400
Zr740      Zr  0.85569793  0.90149064  0.85097556     2.06300
Zr741      Zr  0.90209913  0.91160748  0.90169015     2.10000
Zr742      Zr  0.86068997  0.96040532  0.89024565     1.78800
O743        O  0.92617925  0.87934019  0.91157909    -0.92500
O744        O  0.83463917  0.98425167  0.87893637    -0.40400
O745        O  0.87185560  0.91412439  0.90502987    -0.77000
O746        O  0.84917931  0.90991419  0.88038919    -0.95700
O747        O  0.86703803  0.85473834  0.86518754    -0.89000
O748        O  0.89135145  0.86037557  0.89186008    -0.91800
C749        C  0.88001263  0.02548759  0.87050429     1.01900
C750        C  0.93443213  0.95180948  0.88035109     1.14900
C751        C  0.87474418  0.94564027  0.81904551     1.05600
O752        O  0.83148692  0.93272662  0.84054967    -0.94000
O753        O  0.82956473  0.87252386  0.85752081    -0.89700
O754        O  0.83291526  0.84907791  0.88349213    -0.82900
C755        C  0.82423574  0.85554676  0.87011306     1.12300
O756        O  0.91975326  0.85358722  0.84122838    -0.96000
Zr757      Zr  0.89720259  0.85296637  0.86252415     1.88900
O758        O  0.86680322  0.80508594  0.89087217    -0.72600
O759        O  0.85329244  0.85879848  0.82960991    -0.51900
O760        O  0.88913899  0.82264523  0.83719326    -0.96500
O761        O  0.92384387  0.83008052  0.87306232    -0.53800
O762        O  0.88911500  0.79962602  0.87265054    -0.73100
C763        C  0.87764591  0.78811080  0.88248856     0.99200
O764        O  0.84012785  0.85316301  0.91674186    -0.61900
O765        O  0.90585106  0.95318732  0.92350102    -0.56700
O766        O  0.86996813  0.85556357  0.92379714    -0.93400
O767        O  0.89424641  0.88489988  0.92812852    -0.91800
O768        O  0.86767836  0.98970213  0.91619937    -0.92200
O769        O  0.83751485  0.96039701  0.91080952    -0.91000
C770        C  0.88219529  0.86600878  0.93313139     1.18100
H771        H  0.89617198  0.97812710  0.89148665     0.34000
H772        H  0.83703198  0.91113952  0.88218671     0.44900
H773        H  0.89594014  0.84267872  0.89856221     0.38400
H774        H  0.88903338  0.89571378  0.83568837     0.34900
H775        H  0.83365623  0.00574149  0.88460334     0.26700
H776        H  0.84367619  0.86581093  0.82237327     0.32600
H777        H  0.89375198  0.80038136  0.83891215     0.38500
H778        H  0.86181184  0.01103122  0.91510793     0.33000
H779        H  0.91347636  0.94295434  0.93197108     0.31800
H780        H  0.92997994  0.89038883  0.92208571     0.33500
H781        H  0.92074064  0.81806354  0.88351307     0.32500
H782        H  0.83543919  0.93699744  0.91325399     0.36500
H783        H  0.83077647  0.86888426  0.91462851     0.29200
H784        H  0.91461215  0.98769654  0.83282883     0.33500
H785        H  0.92294877  0.83043952  0.83943031     0.36300
H786        H  0.91291537  0.97039126  0.91815546     0.28900
H787        H  0.83519867  0.83135625  0.91436566     0.41800
H788        H  0.82491593  0.93846734  0.85083516     0.31800
H789        H  0.83736670  0.98963525  0.86699094     0.39500
H790        H  0.93038356  0.84921948  0.87713398     0.31300
H791        H  0.86348994  0.86147176  0.82233565     0.31400
H792        H  0.91972081  0.95092564  0.82979457     0.31600
Zr793      Zr  0.11145159  0.98150069  0.85911489     2.17500
O794        O  0.08854420  0.96496152  0.84005323    -0.50700
O795        O  0.11589613  0.92303448  0.86249003    -0.73900
O796        O  0.12081851  0.97494349  0.82971036    -0.80700
O797        O  0.07830159  0.00099486  0.89369694    -0.82500
O798        O  0.14699953  0.99794912  0.82642553    -0.78100
O799        O  0.08167332  0.97745246  0.86774978    -0.89700
O800        O  0.13687357  0.91515054  0.88189104    -0.75700
O801        O  0.14135972  0.97476321  0.86286770    -0.85200
O802        O  0.11579149  0.97332139  0.88876344    -0.84900
O803        O  0.12381985  0.03132820  0.84854486    -0.71600
O804        O  0.10078418  0.02971157  0.87277207    -0.83700
Zr805      Zr  0.14839756  0.06493685  0.89607120     2.26400
Zr806      Zr  0.15387555  0.02463619  0.85297712     2.06300
Zr807      Zr  0.10576938  0.02197253  0.90240840     2.10000
Zr808      Zr  0.14570547  0.96766874  0.89252139     1.78800
O809        O  0.08293063  0.05834316  0.91135908    -0.92500
O810        O  0.17178431  0.93949235  0.88428548    -0.40400
O811        O  0.13570761  0.01563217  0.90668257    -0.77000
O812        O  0.15919164  0.01642672  0.88261507    -0.95700
O813        O  0.14373109  0.07307165  0.86657066    -0.89000
O814        O  0.11846395  0.07152395  0.89253239    -0.91800
C815        C  0.12583032  0.90489057  0.87127269     1.01900
C816        C  0.07264449  0.98613658  0.88056507     1.14900
C817        C  0.13399084  0.98241575  0.82086297     1.05600
O818        O  0.17756441  0.98917051  0.84537071    -0.94000
O819        O  0.18032575  0.05218995  0.85989300    -0.89700
O820        O  0.17694715  0.07686768  0.88555537    -0.82900
C821        C  0.18571621  0.06931821  0.87238845     1.12300
O822        O  0.09204383  0.08159773  0.84103960    -0.96000
Zr823      Zr  0.11384418  0.07895947  0.86299961     1.88900
O824        O  0.14492925  0.12347860  0.89210557    -0.72600
O825        O  0.15925400  0.06393397  0.83038610    -0.51900
O826        O  0.12401433  0.10744553  0.83780603    -0.96500
O827        O  0.08768764  0.10528620  0.87262199    -0.53800
O828        O  0.12371813  0.13135287  0.87290578    -0.73100
C829        C  0.13514938  0.14161223  0.88312457     0.99200
O830        O  0.16926744  0.07101996  0.91876183    -0.61900
O831        O  0.09968177  0.98117523  0.92412329    -0.56700
O832        O  0.13868361  0.07543106  0.92486447    -0.93400
O833        O  0.11368904  0.04818849  0.92889715    -0.91800
O834        O  0.13583862  0.94010649  0.91808323    -0.92200
O835        O  0.16769077  0.96617307  0.91426063    -0.91000
C836        C  0.12598259  0.06635914  0.93397978     1.18100
H837        H  0.10970347  0.95434458  0.89278675     0.34000
H838        H  0.17122696  0.01403976  0.88473034     0.44900
H839        H  0.11426758  0.08995579  0.89895953     0.38400
H840        H  0.12126440  0.03453394  0.83668986     0.34900
H841        H  0.17106036  0.91778442  0.88982637     0.26700
H842        H  0.16816237  0.05362703  0.82328295     0.32600
H843        H  0.11995299  0.13022045  0.83907215     0.38500
H844        H  0.14003463  0.91738972  0.91695464     0.33000
H845        H  0.09188510  0.99229556  0.93211743     0.31800
H846        H  0.07873041  0.04893464  0.92213830     0.33500
H847        H  0.09122700  0.12021787  0.88183349     0.32500
H848        H  0.16998243  0.98942460  0.91687158     0.36500
H849        H  0.17838733  0.05501888  0.91623987     0.29200
H850        H  0.09236767  0.94425349  0.83478020     0.33500
H851        H  0.08979487  0.10516236  0.83922147     0.36300
H852        H  0.09246747  0.96458308  0.91847052     0.28900
H853        H  0.17456722  0.09274821  0.91703021     0.41800
H854        H  0.18338345  0.98448602  0.85623228     0.31800
H855        H  0.17036138  0.93482067  0.87206382     0.39500
H856        H  0.08125576  0.08774698  0.87845104     0.31300
H857        H  0.14887395  0.06350916  0.82326085     0.31400
H858        H  0.08848302  0.98117788  0.83073807     0.31600
Zr859      Zr  0.11261902  0.48069926  0.86018489     2.17500
O860        O  0.08887687  0.46588602  0.84177247    -0.50700
O861        O  0.11809644  0.42248306  0.86363892    -0.73900
O862        O  0.12091951  0.47385476  0.83044576    -0.80700
O863        O  0.08089682  0.49572800  0.89658067    -0.82500
O864        O  0.14635743  0.49907322  0.82589784    -0.78100
O865        O  0.08356040  0.47310520  0.87032427    -0.89700
O866        O  0.14020217  0.41634256  0.88194810    -0.75700
O867        O  0.14279401  0.47621280  0.86245594    -0.85200
O868        O  0.11846489  0.47309351  0.88961996    -0.84900
O869        O  0.12355764  0.53122736  0.84901741    -0.71600
O870        O  0.10164538  0.52811114  0.87437404    -0.83700
Zr871      Zr  0.14954777  0.56660337  0.89549374     2.26400
Zr872      Zr  0.15388506  0.52689147  0.85197069     2.06300
Zr873      Zr  0.10800534  0.52082733  0.90376953     2.10000
Zr874      Zr  0.14862733  0.46952622  0.89186415     1.78800
O875        O  0.08473958  0.55569222  0.91327271    -0.92500
O876        O  0.17450097  0.44259554  0.88201067    -0.40400
O877        O  0.13822589  0.51652918  0.90662996    -0.77000
O878        O  0.16062617  0.51910819  0.88131794    -0.95700
O879        O  0.14346263  0.57436725  0.86619465    -0.89000
O880        O  0.11938865  0.57096256  0.89322123    -0.91800
C881        C  0.12879331  0.40515645  0.87199621     1.01900
C882        C  0.07500410  0.48037418  0.88367780     1.14900
C883        C  0.13350518  0.48228024  0.82098293     1.05600
O884        O  0.17789619  0.49411568  0.84233833    -0.94000
O885        O  0.18008745  0.55626914  0.85795150    -0.89700
O886        O  0.17684419  0.58237253  0.88329138    -0.82900
C887        C  0.18539859  0.57468506  0.87000082     1.12300
O888        O  0.08945948  0.57796547  0.84423863    -0.96000
Zr889      Zr  0.11336589  0.57808938  0.86394312     1.88900
O890        O  0.14472311  0.62493281  0.89216749    -0.72600
O891        O  0.15673043  0.56745236  0.82953603    -0.51900
O892        O  0.12131883  0.60540143  0.83762398    -0.96500
O893        O  0.08774395  0.60431276  0.87491289    -0.53800
O894        O  0.12320077  0.63110204  0.87309755    -0.73100
C895        C  0.13450476  0.64226178  0.88322489     0.99200
O896        O  0.17263293  0.56866790  0.91628590    -0.61900
O897        O  0.10428993  0.48139919  0.92664733    -0.56700
O898        O  0.14020621  0.57884297  0.92429602    -0.93400
O899        O  0.11646600  0.54851206  0.92970255    -0.91800
O900        O  0.14071918  0.44042609  0.91761992    -0.92200
O901        O  0.17207985  0.47089708  0.91203444    -0.91000
C902        C  0.12828940  0.56844441  0.93407070     1.18100
H903        H  0.11295078  0.45368852  0.89393956     0.34000
H904        H  0.17281302  0.51765628  0.88289731     0.44900
H905        H  0.11516019  0.58915641  0.89978856     0.38400
H906        H  0.12038232  0.53408584  0.83730131     0.34900
H907        H  0.17497973  0.42177317  0.88841998     0.26700
H908        H  0.16625133  0.55939163  0.82244647     0.32600
H909        H  0.11736108  0.62820385  0.83898998     0.38500
H910        H  0.14703669  0.41951383  0.91700474     0.33000
H911        H  0.09625458  0.49203372  0.93461579     0.31800
H912        H  0.08017954  0.54465156  0.92349109     0.33500
H913        H  0.09154456  0.61722351  0.88481247     0.32500
H914        H  0.17024024  0.49116478  0.91863000     0.36500
H915        H  0.16895608  0.55448263  0.92578874     0.29200
H916        H  0.09235196  0.44557693  0.83589963     0.33500
H917        H  0.08756302  0.60113509  0.84116442     0.36300
H918        H  0.09767799  0.46326363  0.92162505     0.28900
H919        H  0.18217128  0.55630012  0.91116677     0.41800
H920        H  0.18396676  0.48793879  0.85284599     0.31800
H921        H  0.17197373  0.43592885  0.87021469     0.39500
H922        H  0.08098267  0.58621976  0.87986792     0.31300
H923        H  0.14648918  0.56460604  0.82236837     0.31400
H924        H  0.08849791  0.48287531  0.83282975     0.31600
Zr925      Zr  0.11112999  0.44963600  0.64416622     2.17500
O926        O  0.08760310  0.46627418  0.66250859    -0.50700
O927        O  0.11588040  0.50829113  0.64078630    -0.73900
O928        O  0.11934882  0.45620042  0.67390649    -0.80700
O929        O  0.07977149  0.43266041  0.60760129    -0.82500
O930        O  0.14505980  0.43198725  0.67827481    -0.78100
O931        O  0.08178038  0.45349142  0.63429601    -0.89700
O932        O  0.13800479  0.51574609  0.62259714    -0.75700
O933        O  0.14124563  0.45527717  0.64193425    -0.85200
O934        O  0.11698738  0.45843655  0.61482906    -0.84900
O935        O  0.12251895  0.39914237  0.65502332    -0.71600
O936        O  0.10081551  0.40209629  0.62956881    -0.83700
Zr937      Zr  0.14924426  0.36588513  0.60836065     2.26400
Zr938      Zr  0.15283417  0.40470257  0.65207719     2.06300
Zr939      Zr  0.10737991  0.41057143  0.60026154     2.10000
Zr940      Zr  0.14708978  0.46304227  0.61257027     1.78800
O941        O  0.08372437  0.37897768  0.58885629    -0.92500
O942        O  0.17277869  0.48958366  0.62302718    -0.40400
O943        O  0.13754208  0.41581336  0.59744941    -0.77000
O944        O  0.15955756  0.41359914  0.62280213    -0.95700
O945        O  0.14297585  0.35716990  0.63756802    -0.89000
O946        O  0.11907956  0.36040054  0.61045543    -0.91800
C947        C  0.12640016  0.52629176  0.63253323     1.01900
C948        C  0.07347636  0.44638188  0.62078044     1.14900
C949        C  0.13206317  0.44830788  0.68327662     1.05600
O950        O  0.17729213  0.43681320  0.66112312    -0.94000
O951        O  0.17938245  0.37646100  0.64602645    -0.89700
O952        O  0.17671529  0.35086010  0.62050781    -0.82900
C953        C  0.18507223  0.35862901  0.63389961     1.12300
O954        O  0.08837716  0.35035629  0.65866528    -0.96000
Zr955      Zr  0.11289557  0.35223510  0.63966108     1.88900
O956        O  0.14507577  0.30730750  0.61140011    -0.72600
O957        O  0.15614903  0.36390636  0.67432998    -0.51900
O958        O  0.11982585  0.32481194  0.66620627    -0.96500
O959        O  0.08834746  0.32425038  0.62747681    -0.53800
O960        O  0.12413319  0.29995299  0.63103309    -0.73100
C961        C  0.13539991  0.28942546  0.62066758     0.99200
O962        O  0.17269296  0.36518333  0.58788682    -0.61900
O963        O  0.10488887  0.45301561  0.57871367    -0.56700
O964        O  0.14021725  0.35445771  0.57939029    -0.93400
O965        O  0.11580850  0.38295910  0.57434841    -0.91800
O966        O  0.13874320  0.49193007  0.58688277    -0.92200
O967        O  0.17032158  0.46541988  0.59213824    -0.91000
C968        C  0.12800291  0.36405142  0.56979076     1.18100
H969        H  0.11127584  0.47771059  0.61064655     0.34000
H970        H  0.17171736  0.41556607  0.62129360     0.44900
H971        H  0.11504446  0.34223754  0.60372837     0.38400
H972        H  0.11934717  0.39590834  0.66673916     0.34900
H973        H  0.17230923  0.51207353  0.61839422     0.26700
H974        H  0.16530681  0.37263085  0.68167021     0.32600
H975        H  0.11588415  0.30201909  0.66470163     0.38500
H976        H  0.14384944  0.51395315  0.58803354     0.33000
H977        H  0.09934706  0.44209401  0.56898143     0.31800
H978        H  0.07939946  0.39215450  0.57924109     0.33500
H979        H  0.09305454  0.30900245  0.61892779     0.32500
H980        H  0.17201373  0.44247017  0.58856420     0.36500
H981        H  0.16894179  0.37911306  0.57833235     0.29200
H982        H  0.09129620  0.48682063  0.66802844     0.33500
H983        H  0.08604343  0.32687499  0.66067151     0.36300
H984        H  0.09612823  0.46822413  0.58309300     0.28900
H985        H  0.18196200  0.37813123  0.59310492     0.41800
H986        H  0.17292591  0.45937817  0.66224619     0.31800
H987        H  0.17079990  0.49235452  0.63533733     0.39500
H988        H  0.08246891  0.34123691  0.62072838     0.31300
H989        H  0.14569170  0.36566810  0.68128645     0.31400
H990        H  0.08707925  0.44987194  0.67173004     0.31600
Zr991      Zr  0.11123530  0.95038170  0.64452123     2.17500
O992        O  0.08798484  0.96510928  0.66364585    -0.50700
O993        O  0.11615234  0.00884571  0.64104748    -0.73900
O994        O  0.12022125  0.95754507  0.67402337    -0.80700
O995        O  0.07882197  0.93326580  0.60907846    -0.82500
O996        O  0.14605609  0.93343013  0.67778022    -0.78100
O997        O  0.08177551  0.95617088  0.63522716    -0.89700
O998        O  0.13691018  0.01656731  0.62131616    -0.75700
O999        O  0.14116386  0.95701040  0.64105843    -0.85200
O1000       O  0.11605689  0.95853980  0.61493580    -0.84900
O1001       O  0.12343425  0.90051203  0.65521600    -0.71600
O1002       O  0.10070226  0.90223436  0.63060357    -0.83700
Zr1003     Zr  0.14870152  0.86669966  0.60780929     2.26400
Zr1004     Zr  0.15351276  0.90721770  0.65118441     2.06300
Zr1005     Zr  0.10614031  0.91026982  0.60103642     2.10000
Zr1006     Zr  0.14600531  0.96385225  0.61143854     1.78800
O1007       O  0.08277394  0.87664780  0.59069015    -0.92500
O1008       O  0.17185454  0.99110408  0.62100059    -0.40400
O1009       O  0.13614598  0.91606468  0.59706228    -0.77000
O1010       O  0.15916548  0.91510175  0.62158035    -0.95700
O1011       O  0.14360132  0.85889027  0.63733699    -0.89000
O1012       O  0.11865883  0.86070917  0.61110166    -0.91800
C1013       C  0.12599049  0.02691035  0.63205040     1.01900
C1014       C  0.07301809  0.94837706  0.62209881     1.14900
C1015       C  0.13313157  0.94957229  0.68311142     1.05600
O1016       O  0.17700202  0.94311227  0.65891166    -0.94000
O1017       O  0.18009597  0.88014837  0.64447019    -0.89700
O1018       O  0.17696522  0.85406178  0.61911106    -0.82900
C1019       C  0.18562391  0.86246832  0.63223290     1.12300
O1020       O  0.09027377  0.85251507  0.66091900    -0.96000
Zr1021     Zr  0.11365495  0.85300661  0.64054241     1.88900
O1022       O  0.14491328  0.80789814  0.61138330    -0.72600
O1023       O  0.15891626  0.86719463  0.67340839    -0.51900
O1024       O  0.12160451  0.82551343  0.66679419    -0.96500
O1025       O  0.08849836  0.82510150  0.62966495    -0.53800
O1026       O  0.12436502  0.80049825  0.63142883    -0.73100
C1027       C  0.13537723  0.78992126  0.62079223     0.99200
O1028       O  0.17061975  0.86612783  0.58569580    -0.61900
O1029       O  0.10151770  0.95259782  0.57980565    -0.56700
O1030       O  0.13868712  0.85448203  0.57918552    -0.93400
O1031       O  0.11423831  0.88327139  0.57476578    -0.91800
O1032       O  0.13668291  0.99202365  0.58587957    -0.92200
O1033       O  0.16844027  0.96539384  0.59010140    -0.91000
C1034       C  0.12626113  0.86422248  0.56987515     1.18100
H1035       H  0.11006242  0.97755594  0.61081105     0.34000
H1036       H  0.17122966  0.91749553  0.61959005     0.44900
H1037       H  0.11449190  0.84230357  0.60464669     0.38400
H1038       H  0.12069065  0.89731744  0.66704387     0.34900
H1039       H  0.17167358  0.01268271  0.61532076     0.26700
H1040       H  0.16709137  0.87806253  0.68111247     0.32600
H1041       H  0.11785654  0.80259733  0.66529659     0.38500
H1042       H  0.14319343  0.01274421  0.58578969     0.33000
H1043       H  0.11051004  0.94899533  0.57120529     0.31800
H1044       H  0.07867869  0.88798908  0.58036586     0.33500
H1045       H  0.09276224  0.80969409  0.62097183     0.32500
H1046       H  0.16721195  0.94456056  0.58384268     0.36500
H1047       H  0.16671134  0.88201544  0.57703632     0.29200
H1048       H  0.09143262  0.98586831  0.66910592     0.33500
H1049       H  0.08766684  0.82919288  0.66300701     0.36300
H1050       H  0.09081611  0.94622437  0.57406145     0.28900
H1051       H  0.18071851  0.87695676  0.59063944     0.41800
H1052       H  0.17170597  0.96481625  0.66068814     0.31800
H1053       H  0.16973809  0.99612455  0.63310245     0.39500
H1054       H  0.08233737  0.84203497  0.62312801     0.31300
H1055       H  0.14817009  0.86611324  0.67996399     0.31400
H1056       H  0.08807894  0.94859510  0.67283418     0.31600
Zr1057     Zr  0.36194632  0.09946015  0.11015286     2.17500
O1058       O  0.33885684  0.08389003  0.09110476    -0.50700
O1059       O  0.36541784  0.04081411  0.11476141    -0.73900
O1060       O  0.37124556  0.09149591  0.08074400    -0.80700
O1061       O  0.32908124  0.12015824  0.14473413    -0.82500
O1062       O  0.39738902  0.11443842  0.07703781    -0.78100
O1063       O  0.33203106  0.09724195  0.11859511    -0.89700
O1064       O  0.38652992  0.03312785  0.13405032    -0.75700
O1065       O  0.39184614  0.09199232  0.11364296    -0.85200
O1066       O  0.36652186  0.09211606  0.13984844    -0.84900
O1067       O  0.37476104  0.14867078  0.09920043    -0.71600
O1068       O  0.35166495  0.14834581  0.12351310    -0.83700
Zr1069     Zr  0.39962457  0.18283806  0.14646357     2.26400
Zr1070     Zr  0.40479285  0.14127390  0.10344748     2.06300
Zr1071     Zr  0.35666645  0.14112742  0.15315798     2.10000
Zr1072     Zr  0.39648205  0.08574507  0.14329619     1.78800
O1073       O  0.33441172  0.17882015  0.16214520    -0.92500
O1074       O  0.42187821  0.05798107  0.13284201    -0.40400
O1075       O  0.38660281  0.13399727  0.15736544    -0.77000
O1076       O  0.41011299  0.13409119  0.13308935    -0.95700
O1077       O  0.39491867  0.19002622  0.11687607    -0.89000
O1078       O  0.36970555  0.18997471  0.14291137    -0.91800
C1079       C  0.37514935  0.02272233  0.12384637     1.01900
C1080       C  0.32317664  0.10578807  0.13156036     1.14900
C1081       C  0.38433548  0.09874402  0.07169684     1.05600
O1082       O  0.42846773  0.10423963  0.09804066    -0.94000
O1083       O  0.43090620  0.17076444  0.10966320    -0.89700
O1084       O  0.42741872  0.19735745  0.13482894    -0.82900
C1085       C  0.43614271  0.18931467  0.12169088     1.12300
O1086       O  0.34343539  0.19764358  0.09121254    -0.96000
Zr1087     Zr  0.36511567  0.19690703  0.11334175     1.88900
O1088       O  0.39572281  0.24161991  0.14331211    -0.72600
O1089       O  0.41134776  0.17814043  0.08006474    -0.51900
O1090       O  0.37521105  0.22583561  0.08824333    -0.96500
O1091       O  0.33914253  0.22412008  0.12275945    -0.53800
O1092       O  0.37508827  0.24924151  0.12342613    -0.73100
C1093       C  0.38607090  0.25967841  0.13410334     0.99200
O1094       O  0.42275870  0.18313989  0.16723847    -0.61900
O1095       O  0.34915230  0.10107077  0.17475653    -0.56700
O1096       O  0.38997711  0.19405904  0.17529230    -0.93400
O1097       O  0.36511697  0.16654216  0.17965767    -0.91800
O1098       O  0.38822016  0.05652506  0.16893590    -0.92200
O1099       O  0.41915706  0.08453606  0.16435293    -0.91000
C1100       C  0.37749523  0.18459280  0.18461983     1.18100
H1101       H  0.36032134  0.07348569  0.14414016     0.34000
H1102       H  0.42219492  0.13186210  0.13511049     0.44900
H1103       H  0.36562184  0.20856306  0.14926548     0.38400
H1104       H  0.37218262  0.15164214  0.08733817     0.34900
H1105       H  0.42285186  0.03809546  0.13993387     0.26700
H1106       H  0.41846301  0.16512993  0.07218587     0.32600
H1107       H  0.37017965  0.24796356  0.08909816     0.38500
H1108       H  0.39415517  0.03519518  0.16817526     0.33000
H1109       H  0.35985061  0.09725030  0.18105031     0.31800
H1110       H  0.32913268  0.16826907  0.17216827     0.33500
H1111       H  0.34251387  0.23712525  0.13278586     0.32500
H1112       H  0.41995041  0.10730850  0.16849539     0.36500
H1113       H  0.41865092  0.17003820  0.17697166     0.29200
H1114       H  0.34250979  0.06327326  0.08564584     0.33500
H1115       H  0.34054429  0.22095553  0.08947601     0.36300
H1116       H  0.34178722  0.11312206  0.18283264     0.28900
H1117       H  0.43184878  0.16928245  0.16231439     0.41800
H1118       H  0.42318806  0.08424654  0.09333070     0.31800
H1119       H  0.41867190  0.04965688  0.12149551     0.39500
H1120       H  0.33197413  0.20635010  0.12743479     0.31300
H1121       H  0.40040990  0.18114988  0.07403714     0.31400
H1122       H  0.33884185  0.10041474  0.08192352     0.31600
Zr1123     Zr  0.36247553  0.60002344  0.11021167     2.17500
O1124       O  0.33956444  0.58314256  0.09122273    -0.50700
O1125       O  0.36666709  0.54132248  0.11415755    -0.73900
O1126       O  0.37162395  0.59283408  0.08075147    -0.80700
O1127       O  0.32947413  0.62098536  0.14463626    -0.82500
O1128       O  0.39802323  0.61478609  0.07733326    -0.78100
O1129       O  0.33259729  0.59720027  0.11872026    -0.89700
O1130       O  0.38782715  0.53348852  0.13337192    -0.75700
O1131       O  0.39236915  0.59283030  0.11382453    -0.85200
O1132       O  0.36692742  0.59215416  0.13985870    -0.84900
O1133       O  0.37509569  0.64958301  0.09943134    -0.71600
O1134       O  0.35220037  0.64875457  0.12382654    -0.83700
Zr1135     Zr  0.40011149  0.68312324  0.14690598     2.26400
Zr1136     Zr  0.40512237  0.64230884  0.10364697     2.06300
Zr1137     Zr  0.35718186  0.64100465  0.15349026     2.10000
Zr1138     Zr  0.39683246  0.58616851  0.14350217     1.78800
O1139       O  0.33491403  0.67739046  0.16378864    -0.92500
O1140       O  0.42295541  0.55839529  0.13507838    -0.40400
O1141       O  0.38711213  0.63427545  0.15766291    -0.77000
O1142       O  0.41048190  0.63450093  0.13327813    -0.95700
O1143       O  0.39542522  0.69093209  0.11734471    -0.89000
O1144       O  0.37018832  0.69005684  0.14342472    -0.91800
C1145       C  0.37661150  0.52313971  0.12296572     1.01900
C1146       C  0.32365089  0.60618993  0.13154013     1.14900
C1147       C  0.38487535  0.59955990  0.07185681     1.05600
O1148       O  0.42922649  0.60745159  0.09654801    -0.94000
O1149       O  0.43136843  0.67088274  0.11020990    -0.89700
O1150       O  0.42788633  0.69747472  0.13537944    -0.82900
C1151       C  0.43659631  0.68933839  0.12226754     1.12300
O1152       O  0.34359291  0.69986850  0.09216660    -0.96000
Zr1153     Zr  0.36560874  0.69764144  0.11391858     1.88900
O1154       O  0.39623555  0.74191134  0.14413714    -0.72600
O1155       O  0.41043615  0.68081753  0.08066402    -0.51900
O1156       O  0.37554856  0.72653050  0.08874697    -0.96500
O1157       O  0.33995792  0.72507118  0.12400377    -0.53800
O1158       O  0.37584104  0.74983350  0.12405487    -0.73100
C1159       C  0.38669183  0.76011270  0.13491206     0.99200
O1160       O  0.42290203  0.68287869  0.16805548    -0.61900
O1161       O  0.35081480  0.60004993  0.17504287    -0.56700
O1162       O  0.39042172  0.69510421  0.17559479    -0.93400
O1163       O  0.36578264  0.66683768  0.17993001    -0.91800
O1164       O  0.38638425  0.55919595  0.16899853    -0.92200
O1165       O  0.41850575  0.58418343  0.16553461    -0.91000
C1166       C  0.37796166  0.68544177  0.18488738     1.18100
H1167       H  0.36079134  0.57328933  0.14394056     0.34000
H1168       H  0.42255715  0.63212128  0.13527783     0.44900
H1169       H  0.36609403  0.70854090  0.14985731     0.38400
H1170       H  0.37249889  0.65272149  0.08756975     0.34900
H1171       H  0.42222507  0.53653572  0.14041835     0.26700
H1172       H  0.41853784  0.66943221  0.07305365     0.32600
H1173       H  0.37100374  0.74899578  0.08989245     0.38500
H1174       H  0.39112640  0.53682233  0.16843575     0.33000
H1175       H  0.34309058  0.61126099  0.18309366     0.31800
H1176       H  0.32889814  0.66466983  0.17265881     0.33500
H1177       H  0.34361315  0.73821591  0.13389437     0.32500
H1178       H  0.42142659  0.60737062  0.16765441     0.36500
H1179       H  0.41877767  0.66875222  0.17739563     0.29200
H1180       H  0.34356453  0.56286816  0.08562438     0.33500
H1181       H  0.34112720  0.72337285  0.09046467     0.36300
H1182       H  0.34348527  0.58373372  0.16933821     0.28900
H1183       H  0.43227932  0.66994044  0.16300609     0.41800
H1184       H  0.42431220  0.58532566  0.09525013     0.31800
H1185       H  0.42154206  0.55411361  0.12280623     0.39500
H1186       H  0.33292033  0.70738696  0.12893829     0.31300
H1187       H  0.39965004  0.68163069  0.07419461     0.31400
H1188       H  0.33915409  0.59980553  0.08212410     0.31600
Zr1189     Zr  0.36253944  0.33298886  0.39389561     2.17500
O1190       O  0.33957695  0.35355357  0.41187883    -0.50700
O1191       O  0.36739335  0.39142372  0.38960994    -0.73900
O1192       O  0.37085912  0.33962661  0.42362375    -0.80700
O1193       O  0.33015606  0.31143087  0.35897320    -0.82500
O1194       O  0.39710350  0.31745499  0.42768058    -0.78100
O1195       O  0.33273876  0.33449540  0.38511263    -0.89700
O1196       O  0.38918732  0.39844522  0.37096870    -0.75700
O1197       O  0.39252527  0.33946290  0.39080699    -0.85200
O1198       O  0.36772961  0.34006731  0.36430028    -0.84900
O1199       O  0.37453119  0.28329436  0.40516295    -0.71600
O1200       O  0.35227523  0.28418389  0.38039569    -0.83700
Zr1201     Zr  0.40050871  0.24832181  0.35840282     2.26400
Zr1202     Zr  0.40468499  0.28990273  0.40152888     2.06300
Zr1203     Zr  0.35797971  0.29112962  0.35083937     2.10000
Zr1204     Zr  0.39775788  0.34534423  0.36118280     1.78800
O1205       O  0.33569898  0.25439439  0.34099432    -0.92500
O1206       O  0.42413658  0.37156358  0.37010181    -0.40400
O1207       O  0.38802687  0.29719722  0.34708067    -0.77000
O1208       O  0.41084146  0.29696831  0.37198840    -0.95700
O1209       O  0.39500561  0.24127577  0.38787279    -0.89000
O1210       O  0.37048442  0.24196275  0.36132049    -0.91800
C1211       C  0.37777024  0.40920407  0.38105419     1.01900
C1212       C  0.32404618  0.32565469  0.37211522     1.14900
C1213       C  0.38384703  0.33276251  0.43283667     1.05600
O1214       O  0.42843775  0.32542019  0.40885373    -0.94000
O1215       O  0.43092403  0.26064190  0.39575369    -0.89700
O1216       O  0.42793644  0.23375175  0.37061262    -0.82900
C1217       C  0.43635290  0.24188893  0.38389473     1.12300
O1218       O  0.34245032  0.23394785  0.41191666    -0.96000
Zr1219     Zr  0.36509917  0.23513584  0.39074641     1.88900
O1220       O  0.39656761  0.18971193  0.36186179    -0.72600
O1221       O  0.40932532  0.25164109  0.42474919    -0.51900
O1222       O  0.37425091  0.20727590  0.41647995    -0.96500
O1223       O  0.33968297  0.20744179  0.38028416    -0.53800
O1224       O  0.37549994  0.18254111  0.38137891    -0.73100
C1225       C  0.38675470  0.17187471  0.37101984     0.99200
O1226       O  0.42418430  0.24677404  0.33818691    -0.61900
O1227       O  0.35183752  0.33239846  0.32945300    -0.56700
O1228       O  0.39110909  0.23631821  0.32959035    -0.93400
O1229       O  0.36667692  0.26482462  0.32461626    -0.91800
O1230       O  0.38828048  0.37417312  0.33587862    -0.92200
O1231       O  0.41942666  0.34539222  0.33905947    -0.91000
C1232       C  0.37886528  0.24591292  0.32001742     1.18100
H1233       H  0.36177558  0.35889222  0.35992076     0.34000
H1234       H  0.42296745  0.29903104  0.37024925     0.44900
H1235       H  0.36642765  0.22340614  0.35490203     0.38400
H1236       H  0.37162222  0.28031434  0.41695872     0.34900
H1237       H  0.42481176  0.39180304  0.36325019     0.26700
H1238       H  0.41774250  0.26256648  0.43216867     0.32600
H1239       H  0.36988842  0.18468345  0.41537163     0.38500
H1240       H  0.39445663  0.39525942  0.33612929     0.33000
H1241       H  0.36210777  0.33284479  0.32217357     0.31800
H1242       H  0.33085810  0.26526770  0.33087622     0.33500
H1243       H  0.34367549  0.19320915  0.37093068     0.32500
H1244       H  0.42160849  0.32198204  0.33673653     0.36500
H1245       H  0.42020176  0.25853871  0.32797016     0.29200
H1246       H  0.34397216  0.37388893  0.41709561     0.33500
H1247       H  0.33990920  0.21053540  0.41382516     0.36300
H1248       H  0.34291362  0.32246409  0.32224892     0.28900
H1249       H  0.43295970  0.26158066  0.34291715     0.41800
H1250       H  0.42339181  0.34752500  0.40980235     0.31800
H1251       H  0.42181846  0.37932719  0.38176635     0.39500
H1252       H  0.33305241  0.22481063  0.37457259     0.31300
H1253       H  0.39858733  0.25188150  0.43135490     0.31400
H1254       H  0.33849089  0.33779635  0.42135336     0.31600
Zr1255     Zr  0.36222473  0.83238206  0.39548405     2.17500
O1256       O  0.33997626  0.85040875  0.41503836    -0.50700
O1257       O  0.36606487  0.89107452  0.39141150    -0.73900
O1258       O  0.37168118  0.83810113  0.42494679    -0.80700
O1259       O  0.32856568  0.81150203  0.36154735    -0.82500
O1260       O  0.39818036  0.81638491  0.42783300    -0.78100
O1261       O  0.33209663  0.83379947  0.38776680    -0.89700
O1262       O  0.38667850  0.89914176  0.37159164    -0.75700
O1263       O  0.39203912  0.84001108  0.39127829    -0.85200
O1264       O  0.36611213  0.84028304  0.36570905    -0.84900
O1265       O  0.37520021  0.78280249  0.40576697    -0.71600
O1266       O  0.35168871  0.78381121  0.38202928    -0.83700
Zr1267     Zr  0.39935910  0.74981455  0.35783966     2.26400
Zr1268     Zr  0.40515007  0.79053518  0.40099193     2.06300
Zr1269     Zr  0.35612862  0.79141268  0.35228655     2.10000
Zr1270     Zr  0.39597254  0.84665558  0.36150971     1.78800
O1271       O  0.33414516  0.75295524  0.34356375    -0.92500
O1272       O  0.42205788  0.87392921  0.37037836    -0.40400
O1273       O  0.38595277  0.79860328  0.34750569    -0.77000
O1274       O  0.40996028  0.79838688  0.37127957    -0.95700
O1275       O  0.39509252  0.74203517  0.38746401    -0.89000
O1276       O  0.36952265  0.74243265  0.36187322    -0.91800
C1277       C  0.37568552  0.90933913  0.38228754     1.01900
C1278       C  0.32293013  0.82534829  0.37501761     1.14900
C1279       C  0.38497612  0.83097949  0.43366451     1.05600
O1280       O  0.42903426  0.82685042  0.40674462    -0.94000
O1281       O  0.43114630  0.76129512  0.39403562    -0.89700
O1282       O  0.42741703  0.73532144  0.36873760    -0.82900
C1283       C  0.43624875  0.74299647  0.38184172     1.12300
O1284       O  0.34337435  0.73169780  0.41326845    -0.96000
Zr1285     Zr  0.36533574  0.73492899  0.39143255     1.88900
O1286       O  0.39610744  0.69100386  0.36110661    -0.72600
O1287       O  0.41193650  0.75263529  0.42383060    -0.51900
O1288       O  0.37490240  0.70592060  0.41667707    -0.96500
O1289       O  0.33937749  0.70860195  0.38138855    -0.53800
O1290       O  0.37580766  0.68293131  0.38132567    -0.73100
C1291       C  0.38679324  0.67274837  0.37055806     0.99200
O1292       O  0.42173961  0.75066421  0.33623194    -0.61900
O1293       O  0.34856044  0.83205428  0.33102806    -0.56700
O1294       O  0.38889892  0.73803646  0.32938105    -0.93400
O1295       O  0.36425297  0.76651438  0.32546843    -0.91800
O1296       O  0.38661595  0.87524382  0.33608318    -0.92200
O1297       O  0.41765107  0.84832636  0.33942000    -0.91000
C1298       C  0.37635490  0.74793243  0.32028498     1.18100
H1299       H  0.35983021  0.85904183  0.36167972     0.34000
H1300       H  0.42199315  0.80081184  0.36904309     0.44900
H1301       H  0.36540846  0.72389370  0.35549976     0.38400
H1302       H  0.37282023  0.77926499  0.41761467     0.34900
H1303       H  0.42177631  0.89539255  0.36458824     0.26700
H1304       H  0.41908761  0.76533525  0.43180058     0.32600
H1305       H  0.37107781  0.68306114  0.41507392     0.38500
H1306       H  0.39192778  0.89714439  0.33685272     0.33000
H1307       H  0.35909660  0.83519734  0.32431025     0.31800
H1308       H  0.32812442  0.76402806  0.33416408     0.33500
H1309       H  0.34294198  0.69490275  0.37168012     0.32500
H1310       H  0.41769521  0.82601193  0.33457335     0.36500
H1311       H  0.41724474  0.76423473  0.32684941     0.29200
H1312       H  0.34434132  0.87052941  0.42050182     0.33500
H1313       H  0.34081431  0.70813610  0.41464467     0.36300
H1314       H  0.34070912  0.82051081  0.32325414     0.28900
H1315       H  0.43097109  0.76431293  0.34102405     0.41800
H1316       H  0.42373698  0.84793580  0.40990760     0.31800
H1317       H  0.42020557  0.87920036  0.38248672     0.39500
H1318       H  0.33263395  0.72648636  0.37623207     0.31300
H1319       H  0.40105058  0.74927558  0.42992427     0.31400
H1320       H  0.33949619  0.83382731  0.42418922     0.31600
Zr1321     Zr  0.64598550  0.33780548  0.10996620     2.17500
O1322       O  0.66870818  0.35653704  0.09114814    -0.50700
O1323       O  0.64192602  0.39624859  0.11447433    -0.73900
O1324       O  0.63713954  0.34452553  0.08032210    -0.80700
O1325       O  0.67870369  0.31762860  0.14482472    -0.82500
O1326       O  0.61088280  0.32217079  0.07661274    -0.78100
O1327       O  0.67589321  0.33926864  0.11836049    -0.89700
O1328       O  0.61984895  0.40338014  0.13276343    -0.75700
O1329       O  0.61603775  0.34473251  0.11345548    -0.85200
O1330       O  0.64122229  0.34515848  0.13966078    -0.84900
O1331       O  0.63361978  0.28831509  0.09897771    -0.71600
O1332       O  0.65643832  0.28921244  0.12353203    -0.83700
Zr1333     Zr  0.60851977  0.25345230  0.14604471     2.26400
Zr1334     Zr  0.60353499  0.29525722  0.10306354     2.06300
Zr1335     Zr  0.65110269  0.29633016  0.15317615     2.10000
Zr1336     Zr  0.61123152  0.35064420  0.14313512     1.78800
O1337       O  0.67365248  0.26006061  0.16292198    -0.92500
O1338       O  0.58483002  0.37743987  0.13479931    -0.40400
O1339       O  0.62111907  0.30241483  0.15711352    -0.77000
O1340       O  0.59791897  0.30216718  0.13269925    -0.95700
O1341       O  0.61356002  0.24661922  0.11650113    -0.89000
O1342       O  0.63852110  0.24712773  0.14278335    -0.91800
C1343       C  0.63150435  0.41406765  0.12291824     1.01900
C1344       C  0.68468223  0.33129357  0.13144751     1.14900
C1345       C  0.62410129  0.33735716  0.07122383     1.05600
O1346       O  0.57970833  0.33130402  0.09665892    -0.94000
O1347       O  0.57728664  0.26624381  0.10920767    -0.89700
O1348       O  0.58097034  0.23853860  0.13402719    -0.82900
C1349       C  0.57217326  0.24706629  0.12103630     1.12300
O1350       O  0.66618705  0.24025474  0.09215474    -0.96000
Zr1351     Zr  0.64343932  0.24030949  0.11325598     1.88900
O1352       O  0.61244392  0.19478166  0.14263976    -0.72600
O1353       O  0.59822007  0.25679361  0.08011999    -0.51900
O1354       O  0.63464013  0.21220460  0.08747502    -0.96500
O1355       O  0.66872622  0.21185983  0.12347829    -0.53800
O1356       O  0.63277993  0.18774274  0.12236502    -0.73100
C1357       C  0.62185183  0.17699442  0.13304507     0.99200
O1358       O  0.58565751  0.25279777  0.16713797    -0.61900
O1359       O  0.65665759  0.33754847  0.17474850    -0.56700
O1360       O  0.61796301  0.24184171  0.17489547    -0.93400
O1361       O  0.64250276  0.27019496  0.17956682    -0.91800
O1362       O  0.62072529  0.38000412  0.16826778    -0.92200
O1363       O  0.58953384  0.35141935  0.16523684    -0.91000
C1364       C  0.63025049  0.25157967  0.18437459     1.18100
H1365       H  0.64726414  0.36401736  0.14392875     0.34000
H1366       H  0.58581496  0.30421540  0.13465572     0.44900
H1367       H  0.64260998  0.22855656  0.14914168     0.38400
H1368       H  0.63632992  0.28526425  0.08715006     0.34900
H1369       H  0.58493275  0.39863118  0.14087679     0.26700
H1370       H  0.59031973  0.26832466  0.07240115     0.32600
H1371       H  0.63911287  0.18968670  0.08864850     0.38500
H1372       H  0.61550533  0.40197358  0.16728506     0.33000
H1373       H  0.64631032  0.33756830  0.18195538     0.31800
H1374       H  0.67824849  0.27068910  0.17321721     0.33500
H1375       H  0.66470823  0.19761530  0.13281909     0.32500
H1376       H  0.58681397  0.32811206  0.16724343     0.36500
H1377       H  0.58941416  0.26774780  0.17627675     0.29200
H1378       H  0.66444625  0.37675159  0.08570149     0.33500
H1379       H  0.66896132  0.21696908  0.09013651     0.36300
H1380       H  0.66560140  0.32783975  0.18200148     0.28900
H1381       H  0.57600619  0.26462577  0.16190954     0.41800
H1382       H  0.58494044  0.35301407  0.09475334     0.31800
H1383       H  0.58655036  0.38338580  0.12276333     0.39500
H1384       H  0.67552137  0.22899058  0.12917861     0.31300
H1385       H  0.60909414  0.25557004  0.07377204     0.31400
H1386       H  0.66945651  0.34019578  0.08191095     0.31600
Zr1387     Zr  0.64639964  0.83657675  0.11069244     2.17500
O1388       O  0.66918309  0.85636858  0.09224961    -0.50700
O1389       O  0.64214250  0.89528584  0.11450766    -0.73900
O1390       O  0.63774929  0.84155286  0.08093665    -0.80700
O1391       O  0.67902043  0.81612867  0.14565971    -0.82500
O1392       O  0.61127586  0.81987431  0.07763428    -0.78100
O1393       O  0.67637475  0.83702283  0.11903157    -0.89700
O1394       O  0.62079576  0.90326283  0.13354771    -0.75700
O1395       O  0.61640804  0.84322861  0.11388747    -0.85200
O1396       O  0.64145900  0.84533464  0.14023183    -0.84900
O1397       O  0.63418430  0.78645438  0.10020223    -0.71600
O1398       O  0.65662356  0.78857497  0.12492398    -0.83700
Zr1399     Zr  0.60855543  0.75350983  0.14755805     2.26400
Zr1400     Zr  0.60403956  0.79315417  0.10407814     2.06300
Zr1401     Zr  0.65109820  0.79705530  0.15442785     2.10000
Zr1402     Zr  0.61143926  0.85060772  0.14345572     1.78800
O1403       O  0.67429488  0.76448826  0.16598820    -0.92500
O1404       O  0.58548454  0.87791616  0.13420579    -0.40400
O1405       O  0.62105829  0.80298579  0.15814126    -0.77000
O1406       O  0.59818681  0.80166976  0.13353529    -0.95700
O1407       O  0.61387450  0.74506783  0.11817233    -0.89000
O1408       O  0.63860904  0.74731930  0.14457702    -0.91800
C1409       C  0.63215495  0.91353220  0.12324398     1.01900
C1410       C  0.68513306  0.82901490  0.13214095     1.14900
C1411       C  0.62453439  0.83460337  0.07205186     1.05600
O1412       O  0.57996418  0.82813824  0.09710209    -0.94000
O1413       O  0.57775809  0.76445119  0.11036249    -0.89700
O1414       O  0.58087613  0.73882644  0.13583935    -0.82900
C1415       C  0.57234690  0.74643800  0.12253426     1.12300
O1416       O  0.66672550  0.73613570  0.09437149    -0.96000
Zr1417     Zr  0.64381137  0.73914727  0.11520640     1.88900
O1418       O  0.61265991  0.69480120  0.14476526    -0.72600
O1419       O  0.59886313  0.75417279  0.08130931    -0.51900
O1420       O  0.63466399  0.71055974  0.08968381    -0.96500
O1421       O  0.66950747  0.71304480  0.12606607    -0.53800
O1422       O  0.63358800  0.68693933  0.12518179    -0.73100
C1423       C  0.62245148  0.67665491  0.13575915     0.99200
O1424       O  0.58527682  0.75264218  0.16824879    -0.61900
O1425       O  0.65537477  0.84009069  0.17534938    -0.56700
O1426       O  0.61809961  0.74203678  0.17632589    -0.93400
O1427       O  0.64277553  0.77010540  0.18066086    -0.91800
O1428       O  0.62059462  0.87765741  0.16937345    -0.92200
O1429       O  0.58909191  0.85303768  0.16483178    -0.91000
C1430       C  0.63058713  0.75149093  0.18559523     1.18100
H1431       H  0.64746946  0.86437907  0.14430414     0.34000
H1432       H  0.58607225  0.80388126  0.13535775     0.44900
H1433       H  0.64274639  0.72908879  0.15116484     0.38400
H1434       H  0.63696158  0.78284265  0.08843545     0.34900
H1435       H  0.58584301  0.89966782  0.13969758     0.26700
H1436       H  0.59092377  0.76549042  0.07352391     0.32600
H1437       H  0.63818781  0.68756317  0.09138025     0.38500
H1438       H  0.61623567  0.90026176  0.16838242     0.33000
H1439       H  0.65917682  0.82856335  0.18571467     0.31800
H1440       H  0.67810899  0.77665977  0.17615681     0.33500
H1441       H  0.66557379  0.69815988  0.13515354     0.32500
H1442       H  0.58639101  0.82990148  0.16732858     0.36500
H1443       H  0.58931643  0.76546847  0.17809145     0.29200
H1444       H  0.66460253  0.87603578  0.08652666     0.33500
H1445       H  0.66879414  0.71252735  0.09253565     0.36300
H1446       H  0.66559084  0.85209432  0.17142523     0.28900
H1447       H  0.57622985  0.76663600  0.16337809     0.41800
H1448       H  0.58501799  0.84980366  0.09468649     0.31800
H1449       H  0.58737338  0.88253654  0.12203431     0.39500
H1450       H  0.67562191  0.73068637  0.13213260     0.31300
H1451       H  0.60973775  0.75301207  0.07497594     0.31400
H1452       H  0.67041367  0.83980125  0.08318389     0.31600
Zr1453     Zr  0.64623092  0.09971164  0.39349376     2.17500
O1454       O  0.66890269  0.07952276  0.41189124    -0.50700
O1455       O  0.64214894  0.04150098  0.38865318    -0.73900
O1456       O  0.63728505  0.09173648  0.42298731    -0.80700
O1457       O  0.67928690  0.12273710  0.35936579    -0.82500
O1458       O  0.61092219  0.11358916  0.42674530    -0.78100
O1459       O  0.67618276  0.09899697  0.38531248    -0.89700
O1460       O  0.62139787  0.03435794  0.36893788    -0.75700
O1461       O  0.61634522  0.09271627  0.38981438    -0.85200
O1462       O  0.64178226  0.09325960  0.36372336    -0.84900
O1463       O  0.63380502  0.14870848  0.40498410    -0.71600
O1464       O  0.65659453  0.14884590  0.38043643    -0.83700
Zr1465     Zr  0.60876664  0.18456179  0.35794601     2.26400
Zr1466     Zr  0.60377269  0.14181222  0.40068054     2.06300
Zr1467     Zr  0.65155872  0.14268378  0.35070485     2.10000
Zr1468     Zr  0.61184755  0.08753528  0.36004761     1.78800
O1469       O  0.67398658  0.17931887  0.34100386    -0.92500
O1470       O  0.58585516  0.05959050  0.36870966    -0.40400
O1471       O  0.62164082  0.13625138  0.34648446    -0.77000
O1472       O  0.59832739  0.13541583  0.37099319    -0.95700
O1473       O  0.61361604  0.19086579  0.38755611    -0.89000
O1474       O  0.63870726  0.19129154  0.36146745    -0.91800
C1475       C  0.63253138  0.02369886  0.37935318     1.01900
C1476       C  0.68512786  0.10825224  0.37254872     1.14900
C1477       C  0.62410177  0.09823265  0.43202551     1.05600
O1478       O  0.57977952  0.10630539  0.40734057    -0.94000
O1479       O  0.57774740  0.17149038  0.39463118    -0.89700
O1480       O  0.58104332  0.19886803  0.36964956    -0.82900
C1481       C  0.57243942  0.19036123  0.38277937     1.12300
O1482       O  0.66565529  0.19822023  0.41267278    -0.96000
Zr1483     Zr  0.64343472  0.19725251  0.39108147     1.88900
O1484       O  0.61265144  0.24308558  0.36170247    -0.72600
O1485       O  0.59854077  0.17935348  0.42408788    -0.51900
O1486       O  0.63338107  0.22386514  0.41685282    -0.96500
O1487       O  0.66925110  0.22509700  0.38169942    -0.53800
O1488       O  0.63308956  0.24990919  0.38186882    -0.73100
C1489       C  0.62215792  0.26073715  0.37123942     0.99200
O1490       O  0.58562538  0.18498751  0.33719603    -0.61900
O1491       O  0.65767990  0.10196332  0.32901653    -0.56700
O1492       O  0.61839011  0.19733630  0.32927977    -0.93400
O1493       O  0.64309708  0.16957168  0.32451293    -0.91800
O1494       O  0.62122322  0.06121879  0.33396212    -0.92200
O1495       O  0.58989253  0.08736246  0.33826033    -0.91000
C1496       C  0.63082224  0.18818047  0.31980673     1.18100
H1497       H  0.64794340  0.07466578  0.35930908     0.34000
H1498       H  0.58623558  0.13328109  0.36903471     0.44900
H1499       H  0.64280601  0.21007374  0.35527987     0.38400
H1500       H  0.63646244  0.15133404  0.41684513     0.34900
H1501       H  0.58601475  0.03865837  0.36241754     0.26700
H1502       H  0.59003031  0.16810867  0.43129417     0.32600
H1503       H  0.63820309  0.24619244  0.41640383     0.38500
H1504       H  0.61600481  0.03920203  0.33428305     0.33000
H1505       H  0.64789661  0.10317597  0.32111849     0.31800
H1506       H  0.67870637  0.16870808  0.33074032     0.33500
H1507       H  0.66568797  0.23884038  0.37200880     0.32500
H1508       H  0.58632213  0.11049606  0.33726788     0.36500
H1509       H  0.58979827  0.17209145  0.32742098     0.29200
H1510       H  0.66454933  0.05901723  0.41698573     0.33500
H1511       H  0.66802735  0.22162410  0.41484302     0.36300
H1512       H  0.66735321  0.11116076  0.32252324     0.28900
H1513       H  0.57657057  0.17094744  0.34206915     0.41800
H1514       H  0.58488683  0.08452216  0.40935531     0.31800
H1515       H  0.58787339  0.05326958  0.38065208     0.39500
H1516       H  0.67629612  0.20765389  0.37653125     0.31300
H1517       H  0.60914786  0.17910668  0.43086753     0.31400
H1518       H  0.66967925  0.09522158  0.42140817     0.31600
Zr1519     Zr  0.64681884  0.60029598  0.39512490     2.17500
O1520       O  0.67006522  0.58906419  0.41481266    -0.50700
O1521       O  0.64289180  0.54164016  0.39145558    -0.73900
O1522       O  0.63733176  0.59162642  0.42440011    -0.80700
O1523       O  0.67957863  0.61982933  0.36036027    -0.82500
O1524       O  0.61151066  0.61587120  0.42809600    -0.78100
O1525       O  0.67635135  0.59491572  0.38600937    -0.89700
O1526       O  0.62190819  0.53408024  0.37200476    -0.75700
O1527       O  0.61691985  0.59324134  0.39151901    -0.85200
O1528       O  0.64235907  0.59259919  0.36542715    -0.84900
O1529       O  0.63421025  0.64969047  0.40590257    -0.71600
O1530       O  0.65721472  0.64882966  0.38147693    -0.83700
Zr1531     Zr  0.60936211  0.68401649  0.35873358     2.26400
Zr1532     Zr  0.60418327  0.64267820  0.40167141     2.06300
Zr1533     Zr  0.65208875  0.64145133  0.35183905     2.10000
Zr1534     Zr  0.61245949  0.58663392  0.36185586     1.78800
O1535       O  0.67464690  0.67752074  0.34187337    -0.92500
O1536       O  0.58667533  0.55810911  0.37064993    -0.40400
O1537       O  0.62211902  0.63501943  0.34776179    -0.77000
O1538       O  0.59888325  0.63514563  0.37204347    -0.95700
O1539       O  0.61417057  0.69144828  0.38828613    -0.89000
O1540       O  0.63931642  0.69051385  0.36215566    -0.91800
C1541       C  0.63302390  0.52360415  0.38250915     1.01900
C1542       C  0.68528531  0.60405592  0.37321285     1.14900
C1543       C  0.62434017  0.59951433  0.43343351     1.05600
O1544       O  0.58056510  0.60596473  0.40780689    -0.94000
O1545       O  0.57787972  0.67116018  0.39517902    -0.89700
O1546       O  0.58138565  0.69813061  0.37012200    -0.82900
C1547       C  0.57260185  0.68966546  0.38315764     1.12300
O1548       O  0.66597356  0.69815119  0.41356434    -0.96000
Zr1549     Zr  0.64406481  0.69763814  0.39166549     1.88900
O1550       O  0.61326430  0.74258625  0.36212014    -0.72600
O1551       O  0.59794993  0.68006636  0.42490822    -0.51900
O1552       O  0.63434659  0.72620340  0.41701059    -0.96500
O1553       O  0.67019812  0.72398301  0.38199717    -0.53800
O1554       O  0.63434251  0.75013202  0.38154226    -0.73100
C1555       C  0.62317365  0.76056423  0.37105115     0.99200
O1556       O  0.58658115  0.68539564  0.33760243    -0.61900
O1557       O  0.65779388  0.60053694  0.33014269    -0.56700
O1558       O  0.61948982  0.69690155  0.33025547    -0.93400
O1559       O  0.64390287  0.66818957  0.32552812    -0.91800
O1560       O  0.62221898  0.55883447  0.33633986    -0.92200
O1561       O  0.59045505  0.58462457  0.34013548    -0.91000
C1562       C  0.63183559  0.68727236  0.32080602     1.18100
H1563       H  0.64851601  0.57380030  0.36123859     0.34000
H1564       H  0.58682303  0.63287615  0.37000342     0.44900
H1565       H  0.64344387  0.70903573  0.35577328     0.38400
H1566       H  0.63679293  0.65257721  0.41776442     0.34900
H1567       H  0.58719066  0.53673664  0.36476473     0.26700
H1568       H  0.58978995  0.66811055  0.43222047     0.32600
H1569       H  0.63847378  0.74891581  0.41566303     0.38500
H1570       H  0.61651603  0.53725043  0.33665123     0.33000
H1571       H  0.64770023  0.60121190  0.32263274     0.31800
H1572       H  0.68051577  0.66500868  0.33284402     0.33500
H1573       H  0.66716802  0.73493141  0.37122198     0.32500
H1574       H  0.58919494  0.60755075  0.33633667     0.36500
H1575       H  0.59089872  0.67312613  0.32767301     0.29200
H1576       H  0.66719312  0.56813946  0.42043061     0.33500
H1577       H  0.66843154  0.72149352  0.41575295     0.36300
H1578       H  0.66710540  0.60998323  0.32322438     0.28900
H1579       H  0.57751586  0.67101666  0.34213017     0.41800
H1580       H  0.58596108  0.58479536  0.41063800     0.31800
H1581       H  0.58856955  0.55271008  0.38273259     0.39500
H1582       H  0.67773001  0.70572220  0.37854873     0.31300
H1583       H  0.60857991  0.68108662  0.43163429     0.31400
H1584       H  0.66918864  0.60587770  0.42381110     0.31600
Zr1585     Zr  0.86216530  0.08414081  0.39427570     2.17500
O1586       O  0.83889155  0.09551707  0.41398685    -0.50700
O1587       O  0.86598922  0.14303665  0.39086593    -0.73900
O1588       O  0.87143708  0.09204127  0.42358282    -0.80700
O1589       O  0.82971423  0.06494562  0.35942521    -0.82500
O1590       O  0.89704760  0.06718192  0.42750242    -0.78100
O1591       O  0.83258229  0.08843986  0.38544393    -0.89700
O1592       O  0.88793815  0.15140302  0.37254428    -0.75700
O1593       O  0.89212305  0.09094868  0.39137761    -0.85200
O1594       O  0.86719615  0.09366751  0.36481000    -0.84900
O1595       O  0.87430191  0.03387575  0.40453811    -0.71600
O1596       O  0.85203225  0.03652486  0.37963323    -0.83700
Zr1597     Zr  0.89999135  0.00232785  0.35697933     2.26400
Zr1598     Zr  0.90443094  0.04073886  0.40095576     2.06300
Zr1599     Zr  0.85753099  0.04591450  0.35019186     2.10000
Zr1600     Zr  0.89722169  0.09926915  0.36193502     1.78800
O1601       O  0.83418150  0.01456185  0.33806252    -0.92500
O1602       O  0.92294567  0.12566418  0.37242927    -0.40400
O1603       O  0.88756302  0.05219821  0.34672863    -0.77000
O1604       O  0.91035202  0.05000432  0.37152387    -0.95700
O1605       O  0.89471083  0.99313037  0.38633990    -0.89000
O1606       O  0.86996462  0.99589617  0.35978674    -0.91800
C1607       C  0.87628840  0.16145219  0.38257281     1.01900
C1608       C  0.82378173  0.07953090  0.37255634     1.14900
C1609       C  0.88426514  0.08386604  0.43271480     1.05600
O1610       O  0.92843987  0.07516547  0.40892511    -0.94000
O1611       O  0.93076577  0.01273085  0.39428328    -0.89700
O1612       O  0.92760211  0.98747464  0.36869845    -0.82900
C1613       C  0.93614266  0.99497504  0.38200751     1.12300
O1614       O  0.84130953  0.98362998  0.40929392    -0.96000
Zr1615     Zr  0.86479309  0.98687924  0.38911708     1.88900
O1616       O  0.89631909  0.94329535  0.35961269    -0.72600
O1617       O  0.90897921  0.00048173  0.42327148    -0.51900
O1618       O  0.87319625  0.95774955  0.41474330    -0.96500
O1619       O  0.83963549  0.96010630  0.37751160    -0.53800
O1620       O  0.87554768  0.93491619  0.37929910    -0.73100
C1621       C  0.88673554  0.92484726  0.36872239     0.99200
O1622       O  0.92298538  0.00363995  0.33602249    -0.61900
O1623       O  0.85323747  0.08978623  0.32970930    -0.56700
O1624       O  0.89059812  0.99129828  0.32805393    -0.93400
O1625       O  0.86592154  0.01941013  0.32376501    -0.91800
O1626       O  0.88862566  0.13049712  0.33709299    -0.92200
O1627       O  0.91948582  0.10141987  0.34045463    -0.91000
C1628       C  0.87816047  0.00095335  0.31874384     1.18100
H1629       H  0.86123628  0.11287247  0.36086815     0.34000
H1630       H  0.92245816  0.05232835  0.36972017     0.44900
H1631       H  0.86591714  0.97778295  0.35307189     0.38400
H1632       H  0.87144968  0.03045810  0.41631648     0.34900
H1633       H  0.92319459  0.14720174  0.36670981     0.26700
H1634       H  0.91753652  0.01058800  0.43084361     0.32600
H1635       H  0.86937665  0.93493806  0.41296326     0.38500
H1636       H  0.89433531  0.15194699  0.33836464     0.33000
H1637       H  0.84888158  0.07875469  0.31941690     0.31800
H1638       H  0.82994336  0.02815367  0.32855708     0.33500
H1639       H  0.84394745  0.94485679  0.36876212     0.32500
H1640       H  0.91785945  0.08127626  0.33369311     0.36500
H1641       H  0.91893871  0.01823887  0.32685171     0.29200
H1642       H  0.84189053  0.11615541  0.41981569     0.33500
H1643       H  0.83915103  0.96000837  0.41101410     0.36300
H1644       H  0.84335658  0.10228070  0.33406488     0.28900
H1645       H  0.93228813  0.01635027  0.34133283     0.41800
H1646       H  0.92339890  0.09684833  0.41136666     0.31800
H1647       H  0.92043000  0.13085650  0.38444063     0.39500
H1648       H  0.83374216  0.97743052  0.37101007     0.31300
H1649       H  0.89830261  0.00050800  0.42996808     0.31400
H1650       H  0.83953987  0.07835566  0.42283496     0.31600
Zr1651     Zr  0.86300838  0.58511002  0.39438594     2.17500
O1652       O  0.84007700  0.60386456  0.41293037    -0.50700
O1653       O  0.86726680  0.64368632  0.38996349    -0.73900
O1654       O  0.87195319  0.59265989  0.42387798    -0.80700
O1655       O  0.82995451  0.56197670  0.36032510    -0.82500
O1656       O  0.89824205  0.57043178  0.42752269    -0.78100
O1657       O  0.83302315  0.58565392  0.38627000    -0.83300
O1658       O  0.88903565  0.65077777  0.37130697    -0.75700
O1659       O  0.89292842  0.59200752  0.39076255    -0.85200
O1660       O  0.86755426  0.59232894  0.36466213    -0.84900
O1661       O  0.87539383  0.53565602  0.40551610    -0.71600
O1662       O  0.85275432  0.53627460  0.38097155    -0.83700
Zr1663     Zr  0.90059352  0.50073636  0.35835664     2.26400
Zr1664     Zr  0.90545658  0.54264033  0.40130410     2.06300
Zr1665     Zr  0.85784868  0.54319266  0.35128106     2.10000
Zr1666     Zr  0.89751957  0.59787082  0.36103828     1.78800
O1667       O  0.83534867  0.50770677  0.34069252    -0.92500
O1668       O  0.92409607  0.62484044  0.36863874    -0.40400
O1669       O  0.88781734  0.54943685  0.34717296    -0.77000
O1670       O  0.91099450  0.54965012  0.37164960    -0.95700
O1671       O  0.89562686  0.49382072  0.38793152    -0.89000
O1672       O  0.87062428  0.49416040  0.36168738    -0.91800
C1673       C  0.87760704  0.66152818  0.38139104     1.01900
C1674       C  0.82406671  0.57624146  0.37356639     1.14900
C1675       C  0.88512014  0.58594039  0.43286854     1.05600
O1676       O  0.92939284  0.57816380  0.40804392    -0.94000
O1677       O  0.93153825  0.51318264  0.39510441    -0.89700
O1678       O  0.92818254  0.48590814  0.37012248    -0.82900
C1679       C  0.93679927  0.49426248  0.38324570     1.12300
O1680       O  0.84267135  0.48529501  0.41189656    -0.96000
Zr1681     Zr  0.86576452  0.48745388  0.39122547     1.88900
O1682       O  0.89668080  0.44205699  0.36167621    -0.72600
O1683       O  0.91111163  0.50479486  0.42446857    -0.51900
O1684       O  0.87412398  0.45999805  0.41735951    -0.96500
O1685       O  0.84043519  0.46019729  0.38029675    -0.53800
O1686       O  0.87655764  0.43499998  0.38216199    -0.73100
C1687       C  0.88736176  0.42426771  0.37136415     0.99200
O1688       O  0.92380814  0.50090570  0.33763185    -0.61900
O1689       O  0.85208352  0.58471371  0.32987480    -0.56700
O1690       O  0.89098902  0.48804387  0.32975465    -0.93400
O1691       O  0.86660549  0.51684106  0.32501579    -0.91800
O1692       O  0.88707748  0.62528230  0.33567944    -0.92200
O1693       O  0.91904801  0.59951956  0.33880515    -0.91000
C1694       C  0.87872832  0.49786827  0.32028396     1.18100
H1695       H  0.86146814  0.61112935  0.36043657     0.34000
H1696       H  0.92308700  0.55182505  0.36969197     0.44900
H1697       H  0.86653494  0.47551376  0.35536668     0.38400
H1698       H  0.87271754  0.53275786  0.41738382     0.34900
H1699       H  0.92321462  0.64702849  0.36368143     0.26700
H1700       H  0.91927646  0.51645515  0.43188287     0.32600
H1701       H  0.87056871  0.43695409  0.41586940     0.38500
H1702       H  0.89125883  0.64803329  0.33665250     0.33000
H1703       H  0.84715184  0.57255061  0.32020379     0.31800
H1704       H  0.83065710  0.51936262  0.33073117     0.33500
H1705       H  0.84466712  0.44372905  0.37212188     0.32500
H1706       H  0.92092350  0.57633087  0.33576297     0.36500
H1707       H  0.91955297  0.51352495  0.32779597     0.29200
H1708       H  0.84420483  0.62436827  0.41816610     0.33500
H1709       H  0.84024585  0.46178406  0.41368490     0.36300
H1710       H  0.84245264  0.59760410  0.33444534     0.28900
H1711       H  0.93267210  0.51533867  0.34250493     0.41800
H1712       H  0.92426038  0.59993610  0.41000932     0.31800
H1713       H  0.92324689  0.62839185  0.38101334     0.39500
H1714       H  0.83476627  0.47688020  0.37317374     0.31300
H1715       H  0.90040334  0.50405916  0.43107945     0.31400
H1716       H  0.83947283  0.58785165  0.42233823     0.31600
Zr1717     Zr  0.86168829  0.35196663  0.10992595     2.17500
O1718       O  0.83807061  0.33807045  0.09116226    -0.50700
O1719       O  0.86540220  0.29308440  0.11316941    -0.73900
O1720       O  0.87029673  0.34577155  0.08027050    -0.80700
O1721       O  0.82981626  0.36871328  0.14603363    -0.82500
O1722       O  0.89623350  0.36944189  0.07631993    -0.78100
O1723       O  0.83215642  0.34833573  0.11926598    -0.89700
O1724       O  0.88704856  0.28427433  0.13172382    -0.75700
O1725       O  0.89173655  0.34526029  0.11228126    -0.85200
O1726       O  0.86718231  0.34207653  0.13922732    -0.84900
O1727       O  0.87370374  0.40240677  0.09965938    -0.71600
O1728       O  0.85159207  0.39931458  0.12479805    -0.83700
Zr1729     Zr  0.90001731  0.43304987  0.14684432     2.26400
Zr1730     Zr  0.90391846  0.39580019  0.10275595     2.06300
Zr1731     Zr  0.85758488  0.38958061  0.15407049     2.10000
Zr1732     Zr  0.89723728  0.33632159  0.14160116     1.78800
O1733       O  0.83494649  0.42455007  0.16487389    -0.92500
O1734       O  0.92232550  0.30923934  0.13003067    -0.40400
O1735       O  0.88768554  0.38311101  0.15711129    -0.77000
O1736       O  0.91023913  0.38570656  0.13199595    -0.95700
O1737       O  0.89427206  0.44299864  0.11767353    -0.89000
O1738       O  0.86995928  0.43963000  0.14450086    -0.91800
C1739       C  0.87540734  0.27447464  0.12164834     1.01900
C1740       C  0.82362873  0.35549556  0.13265217     1.14900
C1741       C  0.88317931  0.35361354  0.07108883     1.05600
O1742       O  0.92816792  0.36318288  0.09357829    -0.94000
O1743       O  0.93043677  0.42383667  0.10932341    -0.89700
O1744       O  0.92778376  0.44774927  0.13529923    -0.82900
C1745       C  0.93614259  0.44081499  0.12176829     1.12300
O1746       O  0.84104210  0.45138698  0.09491224    -0.96000
Zr1747     Zr  0.86430053  0.44910804  0.11533487     1.88900
O1748       O  0.89667667  0.49194349  0.14414584    -0.72600
O1749       O  0.90724873  0.43687226  0.08061980    -0.51900
O1750       O  0.87258946  0.47963257  0.09010359    -0.96500
O1751       O  0.83924424  0.47605361  0.12713169    -0.53800
O1752       O  0.87536079  0.50079795  0.12514821    -0.73100
C1753       C  0.88693862  0.51055723  0.13535662     0.99200
O1754       O  0.92292060  0.43191410  0.16784450    -0.61900
O1755       O  0.85238735  0.34633966  0.17468471    -0.56700
O1756       O  0.89050664  0.44431441  0.17563925    -0.93400
O1757       O  0.86648132  0.41450619  0.18059664    -0.91800
O1758       O  0.88969885  0.30652952  0.16727821    -0.92200
O1759       O  0.92066131  0.33351397  0.16175406    -0.91000
C1760       C  0.87849174  0.43378196  0.18524166     1.18100
H1761       H  0.86123664  0.32295406  0.14326968     0.34000
H1762       H  0.92237212  0.38338266  0.13360429     0.44900
H1763       H  0.86602255  0.45768080  0.15135236     0.38400
H1764       H  0.87069367  0.40608960  0.08795981     0.34900
H1765       H  0.92279448  0.28790433  0.13592884     0.26700
H1766       H  0.91600248  0.42773239  0.07292695     0.32600
H1767       H  0.86797716  0.50191461  0.09182994     0.38500
H1768       H  0.89468788  0.28449503  0.16573544     0.33000
H1769       H  0.86178062  0.34830983  0.18297886     0.31800
H1770       H  0.83098553  0.41365385  0.17536969     0.33500
H1771       H  0.84349538  0.48922663  0.13676679     0.32500
H1772       H  0.92020570  0.35459162  0.16789096     0.36500
H1773       H  0.91877213  0.41776074  0.17716381     0.29200
H1774       H  0.84145554  0.31766055  0.08532755     0.33500
H1775       H  0.83844624  0.47488461  0.09341561     0.36300
H1776       H  0.84211905  0.35351226  0.18095696     0.28900
H1777       H  0.93214591  0.41879513  0.16265938     0.41800
H1778       H  0.92377898  0.34054523  0.09293071     0.31800
H1779       H  0.91920780  0.30366166  0.11822030     0.39500
H1780       H  0.83262713  0.45821885  0.13249738     0.31300
H1781       H  0.89654162  0.43593505  0.07400235     0.31400
H1782       H  0.83797538  0.35507723  0.08222820     0.31600
Zr1783     Zr  0.86278177  0.84911267  0.10942869     2.17500
O1784       O  0.84002794  0.82947705  0.09098211    -0.50700
O1785       O  0.86786856  0.79089133  0.11409286    -0.73900
O1786       O  0.87152073  0.84166182  0.07982495    -0.80700
O1787       O  0.82991394  0.86880267  0.14429805    -0.82500
O1788       O  0.89716669  0.86622274  0.07560710    -0.78100
O1789       O  0.83304767  0.84541719  0.11828483    -0.89700
O1790       O  0.88964605  0.78506186  0.13279496    -0.75700
O1791       O  0.89280654  0.84364032  0.11271765    -0.85200
O1792       O  0.86764863  0.84290149  0.13912520    -0.84900
O1793       O  0.87448943  0.89892516  0.09798425    -0.71600
O1794       O  0.85183440  0.89772569  0.12261578    -0.83700
Zr1795     Zr  0.89943352  0.93581702  0.14471816     2.26400
Zr1796     Zr  0.90468811  0.89339051  0.10190330     2.06300
Zr1797     Zr  0.85722680  0.89175302  0.15230581     2.10000
Zr1798     Zr  0.89769701  0.83863284  0.14241070     1.78800
O1799       O  0.83369681  0.92669856  0.16106619    -0.92500
O1800       O  0.92409535  0.81207782  0.13378081    -0.40400
O1801       O  0.88730080  0.88673404  0.15615695    -0.77000
O1802       O  0.91052178  0.88730062  0.13155672    -0.95700
O1803       O  0.89425339  0.94197213  0.11512970    -0.89000
O1804       O  0.86936371  0.94108064  0.14153865    -0.91800
C1805       C  0.87834265  0.77365405  0.12279717     1.01900
C1806       C  0.82415471  0.85377100  0.13125356     1.14900
C1807       C  0.88428303  0.84972044  0.07051800     1.05600
O1808       O  0.92861564  0.85743069  0.09568784    -0.94000
O1809       O  0.93048990  0.92389233  0.10778902    -0.89700
O1810       O  0.92675114  0.95182026  0.13252340    -0.82900
C1811       C  0.93548739  0.94349103  0.11944486     1.12300
O1812       O  0.84127762  0.94711900  0.09126173    -0.96000
Zr1813     Zr  0.86430719  0.94692296  0.11198856     1.88900
O1814       O  0.89481629  0.99406111  0.14106932    -0.72600
O1815       O  0.91083472  0.93032557  0.07842840    -0.51900
O1816       O  0.87330727  0.97342924  0.08578845    -0.96500
O1817       O  0.83861248  0.97471610  0.12170770    -0.53800
O1818       O  0.87424416  0.00003413  0.12098761    -0.73100
C1819       C  0.88509207  0.01130682  0.13157006     0.99200
O1820       O  0.92237047  0.93829163  0.16564780    -0.61900
O1821       O  0.85220648  0.85223172  0.17489961    -0.56700
O1822       O  0.88983272  0.94827386  0.17346659    -0.93400
O1823       O  0.86520433  0.92023112  0.17823290    -0.91800
O1824       O  0.88826190  0.81073305  0.16802825    -0.92200
O1825       O  0.91962197  0.83923807  0.16421503    -0.91000
C1826       C  0.87736818  0.93914248  0.18292381     1.18100
H1827       H  0.86185767  0.82387452  0.14351959     0.34000
H1828       H  0.92265497  0.88576303  0.13346346     0.44900
H1829       H  0.86508306  0.95966910  0.14777863     0.38400
H1830       H  0.87165087  0.90155700  0.08615845     0.34900
H1831       H  0.92427181  0.79116664  0.14010763     0.26700
H1832       H  0.91870361  0.91799198  0.07096745     0.32600
H1833       H  0.86961243  0.99645747  0.08693996     0.38500
H1834       H  0.89435481  0.78955700  0.16792068     0.33000
H1835       H  0.84453544  0.86360505  0.18293874     0.31800
H1836       H  0.82960250  0.91706630  0.17185196     0.33500
H1837       H  0.84216478  0.98766171  0.13169333     0.32500
H1838       H  0.91985067  0.86211430  0.16828418     0.36500
H1839       H  0.91875691  0.92379299  0.17504151     0.29200
H1840       H  0.84432859  0.80908206  0.08574013     0.33500
H1841       H  0.83941380  0.97036083  0.08827399     0.36300
H1842       H  0.84500144  0.83503549  0.16976277     0.28900
H1843       H  0.93208112  0.92641472  0.16053726     0.41800
H1844       H  0.92338462  0.83600885  0.09307422     0.31800
H1845       H  0.92217337  0.80557282  0.12184513     0.39500
H1846       H  0.83140404  0.95710043  0.12646224     0.31300
H1847       H  0.90008345  0.93174247  0.07193892     0.31400
H1848       H  0.83921649  0.84543135  0.08157287     0.31600
Zr1849     Zr  0.14604775  0.08466417  0.10947196     2.17500
O1850       O  0.16944921  0.09851708  0.09035787    -0.50700
O1851       O  0.14203690  0.14328030  0.11351422    -0.73900
O1852       O  0.13712295  0.09337911  0.08006577    -0.80700
O1853       O  0.17823399  0.06432668  0.14470926    -0.82500
O1854       O  0.11133563  0.06930913  0.07594856    -0.78100
O1855       O  0.17555389  0.08885895  0.11891334    -0.89700
O1856       O  0.12009295  0.15076131  0.13193386    -0.75700
O1857       O  0.11606137  0.09156535  0.11246396    -0.85200
O1858       O  0.14095428  0.09208753  0.13907161    -0.84900
O1859       O  0.13378385  0.03509688  0.09839260    -0.71600
O1860       O  0.15620091  0.03604998  0.12320436    -0.83700
Zr1861     Zr  0.10797514  0.00085829  0.14537193     2.26400
Zr1862     Zr  0.10363774  0.04192388  0.10214318     2.06300
Zr1863     Zr  0.15055780  0.04324590  0.15277334     2.10000
Zr1864     Zr  0.11097000  0.09803914  0.14204503     1.78800
O1865       O  0.17291929  0.00638447  0.16235241    -0.92500
O1866       O  0.08472914  0.12360089  0.13227277    -0.40400
O1867       O  0.12054077  0.04991919  0.15644219    -0.77000
O1868       O  0.09772896  0.04948829  0.13168258    -0.95700
O1869       O  0.11335348  0.99334261  0.11587610    -0.89000
O1870       O  0.13795611  0.99415663  0.14235742    -0.91800
C1871       C  0.13170690  0.16128570  0.12197840     1.01900
C1872       C  0.18424448  0.07962141  0.13184388     1.14900
C1873       C  0.12425507  0.08573575  0.07085041     1.05600
O1874       O  0.07964758  0.07723964  0.09528247    -0.94000
O1875       O  0.07729367  0.01328672  0.10833592    -0.89700
O1876       O  0.08014755  0.98711992  0.13369569    -0.82900
C1877       C  0.07169750  0.99525838  0.12042213     1.12300
O1878       O  0.16664327  0.98531764  0.09252279    -0.96000
Zr1879     Zr  0.14328734  0.98711615  0.11292040     1.88900
O1880       O  0.11159638  0.94225094  0.14169366    -0.72600
O1881       O  0.09791370  0.00419742  0.07893494    -0.51900
O1882       O  0.13468534  0.95979880  0.08683882    -0.96500
O1883       O  0.16848818  0.95923806  0.12375668    -0.53800
O1884       O  0.13258884  0.93471942  0.12213645    -0.73100
C1885       C  0.12126131  0.92426854  0.13247121     0.99200
O1886       O  0.08475587  0.99946610  0.16610677    -0.61900
O1887       O  0.15666059  0.08406464  0.17438832    -0.56700
O1888       O  0.11758048  0.98819003  0.17408800    -0.93400
O1889       O  0.14202178  0.01663996  0.17903461    -0.91800
O1890       O  0.11974525  0.12810245  0.16720722    -0.92200
O1891       O  0.08914476  0.09953656  0.16398813    -0.91000
C1892       C  0.12986014  0.99765284  0.18365537     1.18100
H1893       H  0.14697568  0.11091019  0.14338516     0.34000
H1894       H  0.08562837  0.05174166  0.13351150     0.44900
H1895       H  0.14193494  0.97559258  0.14879958     0.38400
H1896       H  0.13662016  0.03226055  0.08656241     0.34900
H1897       H  0.08405190  0.14443040  0.13861258     0.26700
H1898       H  0.08933443  0.01551286  0.07183189     0.32600
H1899       H  0.13807841  0.93667537  0.08837323     0.38500
H1900       H  0.11454334  0.15002231  0.16593748     0.33000
H1901       H  0.14622602  0.08491077  0.18142254     0.31800
H1902       H  0.17864058  0.01819814  0.17170117     0.33500
H1903       H  0.16444618  0.94587771  0.13342809     0.32500
H1904       H  0.08753474  0.07640936  0.16730480     0.36500
H1905       H  0.08889900  0.01164752  0.17611884     0.29200
H1906       H  0.16625035  0.11945010  0.08491223     0.33500
H1907       H  0.16880114  0.96183280  0.09037891     0.36300
H1908       H  0.16529096  0.07367693  0.18178502     0.28900
H1909       H  0.07579177  0.01394308  0.16147102     0.41800
H1910       H  0.08480470  0.09847444  0.09217210     0.31800
H1911       H  0.08716600  0.13029680  0.12045098     0.39500
H1912       H  0.17538243  0.97674406  0.12903002     0.31300
H1913       H  0.10841466  0.00421678  0.07198971     0.31400
H1914       H  0.16913893  0.08204838  0.08116443     0.31600
Zr1915     Zr  0.14622196  0.58503146  0.11011876     2.17500
O1916       O  0.16912039  0.60411191  0.09162368    -0.50700
O1917       O  0.14127365  0.64346581  0.11353211    -0.73900
O1918       O  0.13771251  0.59048033  0.08039597    -0.80700
O1919       O  0.17869199  0.56680550  0.14542625    -0.82500
O1920       O  0.11178939  0.56685481  0.07649050    -0.78100
O1921       O  0.17588651  0.58889809  0.11907297    -0.89700
O1922       O  0.11989982  0.65098358  0.13257605    -0.75700
O1923       O  0.11615159  0.59061075  0.11297107    -0.85200
O1924       O  0.14091946  0.59368203  0.13958486    -0.84900
O1925       O  0.13470529  0.53448535  0.09946408    -0.71600
O1926       O  0.15696528  0.53743309  0.12436906    -0.83700
Zr1927     Zr  0.10904574  0.50094026  0.14659778     2.26400
Zr1928     Zr  0.10444728  0.54003968  0.10296530     2.06300
Zr1929     Zr  0.15104687  0.54583899  0.15381675     2.10000
Zr1930     Zr  0.11083830  0.59814953  0.14245702     1.78800
O1931       O  0.17394523  0.51187429  0.16489620    -0.92500
O1932       O  0.08513575  0.62494032  0.13216135    -0.40400
O1933       O  0.12092808  0.55093694  0.15725415    -0.77000
O1934       O  0.09826389  0.54864583  0.13239925    -0.95700
O1935       O  0.11462081  0.49243727  0.11725307    -0.89000
O1936       O  0.13914234  0.49568412  0.14389425    -0.91800
C1937       C  0.13111982  0.66145595  0.12218387     1.01900
C1938       C  0.18464696  0.58094364  0.13217726     1.14900
C1939       C  0.12483648  0.58272070  0.07122567     1.05600
O1940       O  0.08035889  0.57335472  0.09408776    -0.94000
O1941       O  0.07815823  0.51124776  0.10962567    -0.89700
O1942       O  0.08149931  0.48518800  0.13496367    -0.82900
C1943       C  0.07283644  0.49299124  0.12177030     1.12300
O1944       O  0.16768602  0.48507153  0.09385665    -0.96000
Zr1945     Zr  0.14463303  0.48749961  0.11457405     1.88900
O1946       O  0.11362849  0.44226365  0.14389268    -0.72600
O1947       O  0.10067897  0.49965555  0.08059473    -0.51900
O1948       O  0.13598219  0.45829350  0.08908101    -0.96500
O1949       O  0.16993058  0.46047553  0.12576975    -0.53800
O1950       O  0.13447837  0.43503184  0.12417593    -0.73100
C1951       C  0.12345394  0.42438930  0.13476307     0.99200
O1952       O  0.08606500  0.50031143  0.16758640    -0.61900
O1953       O  0.15564037  0.58883279  0.17467079    -0.56700
O1954       O  0.11853821  0.48985491  0.17539872    -0.93400
O1955       O  0.14245313  0.52000475  0.18024425    -0.91800
O1956       O  0.11912631  0.62748230  0.16801684    -0.92200
O1957       O  0.08794176  0.59944185  0.16331719    -0.91000
C1958       C  0.13053204  0.50053950  0.18494406     1.18100
H1959       H  0.14671023  0.61292761  0.14370014     0.34000
H1960       H  0.08614114  0.55045057  0.13415698     0.44900
H1961       H  0.14333729  0.47757647  0.15056820     0.38400
H1962       H  0.13766844  0.53111159  0.08770636     0.34900
H1963       H  0.08513804  0.64666905  0.13769919     0.26700
H1964       H  0.09191176  0.50917083  0.07305253     0.32600
H1965       H  0.14051120  0.43586100  0.09046903     0.38500
H1966       H  0.11299025  0.64858863  0.16735072     0.33000
H1967       H  0.14496028  0.58946802  0.18136047     0.31800
H1968       H  0.17900045  0.52486476  0.17420649     0.33500
H1969       H  0.16585462  0.44669504  0.13528173     0.32500
H1970       H  0.09016716  0.58041737  0.17074455     0.36500
H1971       H  0.08990493  0.51476614  0.17689322     0.29200
H1972       H  0.16469438  0.62385850  0.08583433     0.33500
H1973       H  0.17023543  0.46153888  0.09229714     0.36300
H1974       H  0.16419007  0.57971064  0.18256265     0.28900
H1975       H  0.07657839  0.51273430  0.16242720     0.41800
H1976       H  0.08492495  0.59586665  0.09331371     0.31800
H1977       H  0.08748591  0.62969380  0.12007388     0.39500
H1978       H  0.17646593  0.47815748  0.13129677     0.31300
H1979       H  0.11133490  0.50053621  0.07387341     0.31400
H1980       H  0.17027742  0.58742376  0.08261717     0.31600
Zr1981     Zr  0.14655479  0.34903014  0.39415280     2.17500
O1982       O  0.16936607  0.33108013  0.41298579    -0.50700
O1983       O  0.14196377  0.29052638  0.39035272    -0.73900
O1984       O  0.13760104  0.34304162  0.42375524    -0.80700
O1985       O  0.17926652  0.36815121  0.35901318    -0.82500
O1986       O  0.11143351  0.36584402  0.42744871    -0.78100
O1987       O  0.17633440  0.34566790  0.38527168    -0.89700
O1988       O  0.12009168  0.28308147  0.37191170    -0.75700
O1989       O  0.11655298  0.34270418  0.39095593    -0.85200
O1990       O  0.14168656  0.34089823  0.36459989    -0.84900
O1991       O  0.13450042  0.39905290  0.40486834    -0.71600
O1992       O  0.15715682  0.39713907  0.38026399    -0.83700
Zr1993     Zr  0.10918923  0.43273264  0.35766726     2.26400
Zr1994     Zr  0.10433629  0.39276794  0.40102715     2.06300
Zr1995     Zr  0.15168909  0.38928159  0.35071868     2.10000
Zr1996     Zr  0.11168046  0.33576407  0.36136030     1.78800
O1997       O  0.17483874  0.42368226  0.34047464    -0.92500
O1998       O  0.08519890  0.30953997  0.37005189    -0.40400
O1999       O  0.12164829  0.38340886  0.34689628    -0.77000
O2000       O  0.09852097  0.38461364  0.37151550    -0.95700
O2001       O  0.11439583  0.44082161  0.38708050    -0.89000
O2002       O  0.13920221  0.43887239  0.36073140    -0.91800
C2003       C  0.13157317  0.27256708  0.38197214     1.01900
C2004       C  0.18515879  0.35380532  0.37220438     1.14900
C2005       C  0.12454114  0.35036443  0.43280248     1.05600
O2006       O  0.07999146  0.35872329  0.40843661    -0.94000
O2007       O  0.07819784  0.42188739  0.39470571    -0.89700
O2008       O  0.08143620  0.44740029  0.36920253    -0.82900
C2009       C  0.07284358  0.43982808  0.38249046     1.12300
O2010       O  0.16791526  0.44933946  0.41015468    -0.96000
Zr2011     Zr  0.14432672  0.44651880  0.39012700     1.88900
O2012       O  0.11294443  0.49136089  0.36103654    -0.72600
O2013       O  0.09971910  0.43201436  0.42379675    -0.51900
O2014       O  0.13604484  0.47328199  0.41647777    -0.96500
O2015       O  0.16927852  0.47431639  0.37861494    -0.53800
O2016       O  0.13324616  0.49880056  0.38125904    -0.73100
C2017       C  0.12227965  0.50929711  0.37059045     0.99200
O2018       O  0.08656412  0.43345524  0.33635250    -0.61900
O2019       O  0.15683388  0.34733011  0.32941988    -0.56700
O2020       O  0.11912060  0.44465346  0.32907433    -0.93400
O2021       O  0.14368116  0.41629107  0.32447740    -0.91800
O2022       O  0.12170338  0.30733228  0.33614101    -0.92200
O2023       O  0.09015846  0.33347191  0.33919331    -0.91000
C2024       C  0.13155560  0.43517684  0.31971499     1.18100
H2025       H  0.14765368  0.32185949  0.36046402     0.34000
H2026       H  0.08640624  0.38254795  0.36965775     0.44900
H2027       H  0.14330678  0.45724304  0.35421877     0.38400
H2028       H  0.13728257  0.40231475  0.41665991     0.34900
H2029       H  0.08575665  0.28727177  0.36516325     0.26700
H2030       H  0.09146607  0.42124747  0.43148614     0.32600
H2031       H  0.13917122  0.49652321  0.41492722     0.38500
H2032       H  0.11650136  0.28535454  0.33683264     0.33000
H2033       H  0.14686389  0.34853550  0.32177748     0.31800
H2034       H  0.17910608  0.41251375  0.33017018     0.33500
H2035       H  0.16491242  0.48885466  0.36957208     0.32500
H2036       H  0.08690954  0.35655281  0.33729030     0.36500
H2037       H  0.09058400  0.41906343  0.32708174     0.29200
H2038       H  0.16508035  0.31119912  0.41875470     0.33500
H2039       H  0.17009165  0.47292910  0.41195348     0.36300
H2040       H  0.16641714  0.35587965  0.32255461     0.28900
H2041       H  0.07699018  0.42099051  0.34135310     0.41800
H2042       H  0.08486291  0.33688785  0.41079273     0.31800
H2043       H  0.08643647  0.30612182  0.38241497     0.39500
H2044       H  0.17562180  0.45705678  0.37248123     0.31300
H2045       H  0.11053227  0.43231776  0.43023920     0.31400
H2046       H  0.17017061  0.34789854  0.42197190     0.31600
Zr2047     Zr  0.14518856  0.84914118  0.39382148     2.17500
O2048       O  0.16828486  0.83299633  0.41275487    -0.50700
O2049       O  0.14044417  0.79067816  0.38988438    -0.73900
O2050       O  0.13619973  0.84204540  0.42337751    -0.80700
O2051       O  0.17838359  0.86985382  0.35926097    -0.82500
O2052       O  0.11027518  0.86585196  0.42706954    -0.78100
O2053       O  0.17499403  0.84562697  0.38505439    -0.89700
O2054       O  0.11880872  0.78369308  0.37109685    -0.75700
O2055       O  0.11522167  0.84268339  0.39024827    -0.85200
O2056       O  0.14061154  0.84163292  0.36415337    -0.84900
O2057       O  0.13295858  0.89892337  0.40467312    -0.71600
O2058       O  0.15581717  0.89753211  0.38023972    -0.83700
Zr2059     Zr  0.10808266  0.93354887  0.35736495     2.26400
Zr2060     Zr  0.10286181  0.89238098  0.40053398     2.06300
Zr2061     Zr  0.15071762  0.89029492  0.35060593     2.10000
Zr2062     Zr  0.11063121  0.83655074  0.36054211     1.78800
O2063       O  0.17321209  0.92696197  0.34108591    -0.92500
O2064       O  0.08393447  0.80981754  0.36804577    -0.40400
O2065       O  0.12071252  0.88449000  0.34646598    -0.77000
O2066       O  0.09733332  0.88514125  0.37090791    -0.95700
O2067       O  0.11302507  0.94074590  0.38690731    -0.89000
O2068       O  0.13806188  0.93962617  0.36073863    -0.91800
C2069       C  0.13008366  0.77293513  0.38132885     1.01900
C2070       C  0.18406625  0.85476277  0.37233814     1.14900
C2071       C  0.12322440  0.84986530  0.43244801     1.05600
O2072       O  0.07892397  0.85611017  0.40619994    -0.94000
O2073       O  0.07710095  0.92288942  0.39453025    -0.89700
O2074       O  0.08049788  0.94878113  0.36914503    -0.82900
C2075       C  0.07192419  0.94140911  0.38247866     1.12300
O2076       O  0.16496963  0.94893359  0.41193019    -0.96000
Zr2077     Zr  0.14288559  0.94667356  0.39024768     1.88900
O2078       O  0.11216315  0.99212941  0.36069950    -0.72600
O2079       O  0.09633599  0.92982443  0.42366601    -0.51900
O2080       O  0.13296846  0.97533965  0.41548207    -0.96500
O2081       O  0.16880510  0.97353601  0.38040001    -0.53800
O2082       O  0.13312305  0.99910766  0.38028416    -0.73100
C2083       C  0.12199247  0.00985089  0.36986497     0.99200
O2084       O  0.08499535  0.93509521  0.33654327    -0.61900
O2085       O  0.15689914  0.84846156  0.32950998    -0.56700
O2086       O  0.11794231  0.94459261  0.32855034    -0.93400
O2087       O  0.14242071  0.91589539  0.32404903    -0.91800
O2088       O  0.12101682  0.80848856  0.33534861    -0.92200
O2089       O  0.08913155  0.83569135  0.33831486    -0.91000
C2090       C  0.13025019  0.93455767  0.31914556     1.18100
H2091       H  0.14661602  0.82264523  0.35998965     0.34000
H2092       H  0.08523140  0.88320389  0.36895809     0.44900
H2093       H  0.14223650  0.95804110  0.35431014     0.38400
H2094       H  0.13563655  0.90201363  0.41650010     0.34900
H2095       H  0.08456687  0.78799867  0.36264209     0.26700
H2096       H  0.08846313  0.91755322  0.43114752     0.32600
H2097       H  0.13657926  0.99833963  0.41389639     0.38500
H2098       H  0.11610234  0.78626037  0.33608311     0.33000
H2099       H  0.14710738  0.84918711  0.32161287     0.31800
H2100       H  0.17804172  0.91628343  0.33090081     0.33500
H2101       H  0.16587451  0.98323484  0.36927261     0.32500
H2102       H  0.09038427  0.85696984  0.33247141     0.36500
H2103       H  0.08896888  0.92199130  0.32676148     0.29200
H2104       H  0.16450875  0.81252726  0.41828958     0.33500
H2105       H  0.16696432  0.97248396  0.41408438     0.36300
H2106       H  0.16654213  0.85739600  0.32288613     0.28900
H2107       H  0.07575496  0.92154130  0.34140828     0.41800
H2108       H  0.08417898  0.83486280  0.40912293     0.31800
H2109       H  0.08491548  0.80530016  0.38032525     0.39500
H2110       H  0.17667910  0.95542435  0.37763010     0.31300
H2111       H  0.10702832  0.93159023  0.43022685     0.31400
H2112       H  0.16853086  0.84958028  0.42190692     0.31600
C2113       C  0.12789143  0.67447014  0.37940525     0.17600
C2114       C  0.11476041  0.66372526  0.36874228    -0.11500
C2115       C  0.11252404  0.63036119  0.36570845    -0.12300
C2116       C  0.12343088  0.60767778  0.37332710     0.19200
C2117       C  0.13657048  0.61841727  0.38398078    -0.14400
C2118       C  0.13880713  0.65178235  0.38701357    -0.12600
C2119       C  0.12116367  0.57331849  0.37047908     0.00200
C2120       C  0.12061583  0.54400622  0.36949009    -0.32700
C2121       C  0.13023364  0.70885219  0.38216279     0.01500
C2122       C  0.13107270  0.73817624  0.38292715    -0.34300
H2123       H  0.10628859  0.68114706  0.36275596     0.12600
H2124       H  0.10232696  0.62228287  0.35747138     0.12400
H2125       H  0.14506326  0.60099668  0.38994064     0.12300
H2126       H  0.14902179  0.65986348  0.39522819     0.11300
C2127       C  0.12977901  0.17416266  0.37988210     0.17600
C2128       C  0.11761125  0.15684609  0.38927725    -0.11500
C2129       C  0.11465354  0.12382991  0.38583978    -0.12300
C2130       C  0.12377429  0.10813515  0.37292027     0.19200
C2131       C  0.13595999  0.12543786  0.36354988    -0.14400
C2132       C  0.13891849  0.15844043  0.36698814    -0.12600
C2133       C  0.12133386  0.07386968  0.36992089     0.00200
C2134       C  0.12062909  0.04459728  0.36874713    -0.32700
C2135       C  0.13211126  0.20851978  0.38270511     0.01500
C2136       C  0.13280905  0.23784477  0.38352997    -0.34300
H2137       H  0.11036516  0.16889604  0.39916290     0.12600
H2138       H  0.10531231  0.11054901  0.39325706     0.12400
H2139       H  0.14318490  0.11340974  0.35364124     0.12300
H2140       H  0.14823439  0.17172975  0.35954386     0.11300
C2141       C  0.13062234  0.47573499  0.23505671     0.17600
C2142       C  0.14619043  0.47109489  0.24337931    -0.11500
C2143       C  0.14649237  0.46399780  0.26072529    -0.12300
C2144       C  0.13122581  0.46155041  0.26984901     0.19200
C2145       C  0.11564333  0.46623716  0.26154173    -0.14400
C2146       C  0.11534093  0.47334045  0.24418261    -0.12600
C2147       C  0.13154931  0.45361702  0.28763478     0.00200
C2148       C  0.13171416  0.44595536  0.30240053    -0.32700
C2149       C  0.13039502  0.48331496  0.21722197     0.01500
C2150       C  0.13044716  0.49046594  0.20238185    -0.34300
H2151       H  0.15808107  0.47295270  0.23646118     0.12600
H2152       H  0.15860823  0.46034335  0.26700504     0.12400
H2153       H  0.10375616  0.46432126  0.26846414     0.12300
H2154       H  0.10322654  0.47694575  0.23789128     0.11300
C2155       C  0.12226217  0.82583735  0.12995817     0.17600
C2156       C  0.11357867  0.80979802  0.11687224    -0.11500
C2157       C  0.11677775  0.77677095  0.11365252    -0.12300
C2158       C  0.12874259  0.75981179  0.12344644     0.19200
C2159       C  0.13737957  0.77584435  0.13654828    -0.14400
C2160       C  0.13417684  0.80882909  0.13977057    -0.12600
C2161       C  0.13133335  0.72546380  0.12088149     0.00200
C2162       C  0.13223032  0.69614087  0.12039750    -0.32700
C2163       C  0.11987224  0.86023687  0.13256535     0.01500
C2164       C  0.11947230  0.88956475  0.13351682    -0.34300
H2165       H  0.10445563  0.82285431  0.10911196     0.12600
H2166       H  0.10989927  0.76445789  0.10361180     0.12400
H2167       H  0.14651598  0.76281706  0.14430648     0.12300
H2168       H  0.14106719  0.82111927  0.14981006     0.11300
C2169       C  0.13032523  0.25976911  0.12461315     0.17600
C2170       C  0.11694949  0.27680746  0.11687451    -0.11500
C2171       C  0.11431176  0.30982601  0.12059641    -0.12300
C2172       C  0.12497178  0.32585659  0.13214336     0.19200
C2173       C  0.13831668  0.30879301  0.13991409    -0.14400
C2174       C  0.14095446  0.27577945  0.13619243    -0.12600
C2175       C  0.12287936  0.36025421  0.13517165     0.00200
C2176       C  0.12222083  0.38959371  0.13614699    -0.32700
C2177       C  0.13247928  0.22540399  0.12153575     0.01500
C2178       C  0.13310385  0.19606021  0.12058901    -0.34300
H2179       H  0.10854412  0.26455935  0.10803740     0.12600
H2180       H  0.10405228  0.32289265  0.11440552     0.12400
H2181       H  0.14672592  0.32104123  0.14874683     0.12300
H2182       H  0.15122104  0.26272212  0.14237622     0.11300
C2183       C  0.12981677  0.97180395  0.23378605     0.17600
C2184       C  0.12312620  0.99433017  0.24541685    -0.11500
C2185       C  0.12315851  0.98729794  0.26279615    -0.12300
C2186       C  0.12990780  0.95770435  0.26869264     0.19200
C2187       C  0.13656183  0.93510677  0.25706822    -0.14400
C2188       C  0.13652856  0.94214525  0.23967453    -0.12600
C2189       C  0.13006219  0.95062090  0.28663507     0.00200
C2190       C  0.13018994  0.94415629  0.30158856    -0.32700
C2191       C  0.12985717  0.97931899  0.21587612     0.01500
C2192       C  0.12985231  0.98678336  0.20103647    -0.34300
H2193       H  0.11790808  0.01734883  0.24105185     0.12600
H2194       H  0.11797025  0.00496549  0.27163002     0.12400
H2195       H  0.14181183  0.91212258  0.26144862     0.12300
H2196       H  0.14174987  0.92451899  0.23083846     0.11300
C2197       C  0.02099770  0.97568227  0.11791516     0.17600
C2198       C  0.01050867  0.99637149  0.12749777    -0.11500
C2199       C  0.99281084  0.99263241  0.12701379    -0.12300
C2200       C  0.98552172  0.96823153  0.11691103     0.19200
C2201       C  0.99599709  0.94780115  0.10716275    -0.14400
C2202       C  0.01370038  0.95153972  0.10764876    -0.12600
C2203       C  0.96741429  0.96285484  0.11726640     0.00200
C2204       C  0.95253509  0.95577053  0.11807463    -0.32700
C2205       C  0.03920670  0.97952599  0.11858301     0.01500
C2206       C  0.05428340  0.98490303  0.11934134    -0.34300
H2207       H  0.01601854  0.01521099  0.13543089     0.12600
H2208       H  0.98484343  0.00844921  0.13466566     0.12400
H2209       H  0.99049408  0.92873202  0.09937369     0.12300
H2210       H  0.02168125  0.93550311  0.10013679     0.11300
C2211       C  0.88080470  0.67511522  0.12576312     0.17600
C2212       C  0.87257796  0.66007464  0.13947449    -0.11500
C2213       C  0.87549349  0.62706136  0.14298112    -0.12300
C2214       C  0.88672220  0.60900489  0.13284589     0.19200
C2215       C  0.89498083  0.62404243  0.11914808    -0.14400
C2216       C  0.89206604  0.65707634  0.11564203    -0.12600
C2217       C  0.88879320  0.57456184  0.13572773     0.00200
C2218       C  0.88898440  0.54520234  0.13668245    -0.32700
C2219       C  0.87839684  0.70945184  0.12272168     0.01500
C2220       C  0.87746788  0.73876531  0.12165834    -0.34300
H2221       H  0.86396140  0.67388511  0.14746885     0.12600
H2222       H  0.86890632  0.61557208  0.15349024     0.12400
H2223       H  0.90354987  0.61018920  0.11112168     0.12300
H2224       H  0.89860812  0.66854932  0.10510145     0.11300
C2225       C  0.88303181  0.10985903  0.12966707     0.17600
C2226       C  0.87034998  0.12628695  0.13880473    -0.11500
C2227       C  0.86728522  0.15940823  0.13575236    -0.12300
C2228       C  0.87682555  0.17610813  0.12348302     0.19200
C2229       C  0.88957896  0.15971441  0.11442515    -0.14400
C2230       C  0.89264443  0.12660100  0.11747741    -0.12600
C2231       C  0.87425870  0.21048814  0.12091527     0.00200
C2232       C  0.87362487  0.23982830  0.12013367    -0.32700
C2233       C  0.88543131  0.07540436  0.13201283     0.01500
C2234       C  0.88618039  0.04608388  0.13269074    -0.34300
H2235       H  0.86277076  0.11345515  0.14817199     0.12600
H2236       H  0.85752990  0.17198745  0.14295889     0.12400
H2237       H  0.89715469  0.17253265  0.10505142     0.12300
H2238       H  0.90239617  0.11401767  0.11026601     0.11300
C2239       C  0.02227017  0.47086604  0.12058110     0.17600
C2240       C  0.01478226  0.44852258  0.10938417    -0.11500
C2241       C  0.99707925  0.44440679  0.10922669    -0.12300
C2242       C  0.98676257  0.46265911  0.12023475     0.19200
C2243       C  0.99425186  0.48502795  0.13141533    -0.14400
C2244       C  0.01194821  0.48914082  0.13157320    -0.12600
C2245       C  0.96858510  0.45762563  0.12040500     0.00200
C2246       C  0.95355407  0.45146769  0.12081728    -0.32700
C2247       C  0.04046796  0.47566177  0.12062072     0.01500
C2248       C  0.05549367  0.48189868  0.12092043    -0.34300
H2249       H  0.02261031  0.43432885  0.10079197     0.12600
H2250       H  0.99144589  0.42691939  0.10058048     0.12400
H2251       H  0.98643177  0.49916579  0.14004113     0.12300
H2252       H  0.01758076  0.50656705  0.14025438     0.11300
C2253       C  0.02243523  0.46214489  0.38404678     0.17600
C2254       C  0.01194306  0.44401577  0.37318819    -0.11500
C2255       C  0.99428943  0.44842413  0.37358161    -0.12300
C2256       C  0.98705677  0.47091459  0.38486593     0.19200
C2257       C  0.99754708  0.48906251  0.39571723    -0.14400
C2258       C  0.01520608  0.48465245  0.39532440    -0.12600
C2259       C  0.96896017  0.47630467  0.38487002     0.00200
C2260       C  0.95401418  0.48288796  0.38439436    -0.32700
C2261       C  0.04055859  0.45709459  0.38379429     0.01500
C2262       C  0.05554728  0.45084121  0.38339425    -0.34300
H2263       H  0.01740631  0.42649716  0.36443642     0.12600
H2264       H  0.98630252  0.43443795  0.36505897     0.12400
H2265       H  0.99208538  0.50668875  0.40441016     0.12300
H2266       H  0.02320185  0.49874085  0.40379154     0.11300
C2267       C  0.87893787  0.45895880  0.23530698     0.17600
C2268       C  0.86392521  0.46924623  0.24330445    -0.11500
C2269       C  0.86389864  0.47618609  0.26067517    -0.12300
C2270       C  0.87888030  0.47283815  0.27016061     0.19200
C2271       C  0.89391153  0.46259349  0.26215768    -0.14400
C2272       C  0.89393795  0.45564810  0.24477573    -0.12600
C2273       C  0.87884596  0.48031641  0.28802695     0.00200
C2274       C  0.87875394  0.48750238  0.30287272    -0.32700
C2275       C  0.87884711  0.45124080  0.21748263     0.01500
C2276       C  0.87864524  0.44391150  0.20266795    -0.34300
H2277       H  0.85224470  0.47181397  0.23612718     0.12600
H2278       H  0.85221084  0.48415961  0.26670291     0.12400
H2279       H  0.90558469  0.45998874  0.26934251     0.12300
H2280       H  0.90561608  0.44763206  0.23874106     0.11300
C2281       C  0.88562344  0.82620260  0.37135977     0.17600
C2282       C  0.87143925  0.81008431  0.36456943    -0.11500
C2283       C  0.86857998  0.77710040  0.36825776    -0.12300
C2284       C  0.87983584  0.76010075  0.37883351     0.19200
C2285       C  0.89405074  0.77617509  0.38560018    -0.14400
C2286       C  0.89690906  0.80918476  0.38191421    -0.12600
C2287       C  0.87737719  0.72572978  0.38185696     0.00200
C2288       C  0.87647408  0.69637878  0.38280197    -0.32700
C2289       C  0.88792587  0.86065289  0.36838823     0.01500
C2290       C  0.88843792  0.89004451  0.36735653    -0.34300
H2291       H  0.86253956  0.82306464  0.35652493     0.12600
H2292       H  0.85764750  0.76483388  0.36281791     0.12400
H2293       H  0.90293400  0.76318213  0.39365900     0.12300
H2294       H  0.90783260  0.82146422  0.38736262     0.11300
C2295       C  0.88539541  0.32583994  0.37421798     0.17600
C2296       C  0.89076935  0.31141156  0.38941855    -0.11500
C2297       C  0.88732295  0.27844349  0.39260131    -0.12300
C2298       C  0.87839821  0.25985964  0.38063912     0.19200
C2299       C  0.87302269  0.27430322  0.36544645    -0.14400
C2300       C  0.87647028  0.30725576  0.36226349    -0.12600
C2301       C  0.87568064  0.22552620  0.38340519     0.00200
C2302       C  0.87483644  0.19617842  0.38420534    -0.32700
C2303       C  0.88809383  0.36015203  0.37139241     0.01500
C2304       C  0.88884888  0.38946968  0.37031235    -0.34300
H2305       H  0.89753801  0.32566847  0.39882087     0.12600
H2306       H  0.89167519  0.26742874  0.40431533     0.12400
H2307       H  0.86625520  0.26005584  0.35603988     0.12300
H2308       H  0.87211408  0.31826366  0.35054873     0.11300
C2309       C  0.02193179  0.96620854  0.38414464     0.17600
C2310       C  0.01347993  0.97135010  0.36874551    -0.11500
C2311       C  0.99579292  0.97496938  0.36849148    -0.12300
C2312       C  0.98649802  0.97335575  0.38363351     0.19200
C2313       C  0.99494031  0.96837904  0.39905277    -0.14400
C2314       C  0.01264241  0.96474541  0.39930622    -0.12600
C2315       C  0.96838241  0.97793794  0.38336770     0.00200
C2316       C  0.95340398  0.98402700  0.38290072    -0.32700
C2317       C  0.03999976  0.96070918  0.38421181     0.01500
C2318       C  0.05486616  0.95356538  0.38368716    -0.34300
H2319       H  0.02054508  0.97231024  0.35694554     0.12600
H2320       H  0.98937517  0.97901497  0.35651770     0.12400
H2321       H  0.98785300  0.96730751  0.41083712     0.12300
H2322       H  0.01905662  0.96056637  0.41126663     0.11300
C2323       C  0.87780240  0.97739592  0.26823376     0.17600
C2324       C  0.89213416  0.96384102  0.26026774    -0.11500
C2325       C  0.89195018  0.95752374  0.24279857    -0.12300
C2326       C  0.87745057  0.96474910  0.23312446     0.19200
C2327       C  0.86312941  0.97836881  0.24107927    -0.14400
C2328       C  0.86331375  0.98469020  0.25855162    -0.12600
C2329       C  0.87720301  0.95755727  0.21515671     0.00200
C2330       C  0.87719909  0.95018259  0.20029354    -0.32700
C2331       C  0.87800667  0.98421526  0.28624717     0.01500
C2332       C  0.87807831  0.99097662  0.30119281    -0.34300
H2333       H  0.90343917  0.95814059  0.26755240     0.12600
H2334       H  0.90309569  0.94691715  0.23684613     0.12400
H2335       H  0.85181495  0.98400900  0.23379605     0.12300
H2336       H  0.85215795  0.99524283  0.26450961     0.11300
C2337       C  0.77234249  0.58535569  0.37492807     0.17600
C2338       C  0.76378325  0.60349988  0.38736285    -0.11500
C2339       C  0.74599392  0.60563905  0.38710904    -0.12300
C2340       C  0.73667650  0.58961255  0.37444267     0.19200
C2341       C  0.74523030  0.57121057  0.36211112    -0.14400
C2342       C  0.76301352  0.56906587  0.36236663    -0.12600
C2343       C  0.71840804  0.59280817  0.37388317     0.00200
C2344       C  0.70319728  0.59695513  0.37350213    -0.32700
C2345       C  0.79066954  0.58356924  0.37490370     0.01500
C2346       C  0.80597479  0.58109467  0.37442828    -0.34300
H2347       H  0.77085012  0.61616044  0.39715242     0.12600
H2348       H  0.73951802  0.61998526  0.39669271     0.12400
H2349       H  0.73817565  0.55876914  0.35223810     0.12300
H2350       H  0.76949388  0.55491949  0.35270590     0.11300
C2351       C  0.63172023  0.92521442  0.37755992     0.17600
C2352       C  0.62145095  0.90768836  0.38887707    -0.11500
C2353       C  0.61826481  0.87457599  0.38606233    -0.12300
C2354       C  0.62527904  0.85896395  0.37188813     0.19200
C2355       C  0.63562151  0.87644354  0.36059916    -0.14400
C2356       C  0.63880378  0.90959245  0.36341207    -0.12600
C2357       C  0.62275972  0.82454903  0.36963717     0.00200
C2358       C  0.62195524  0.79522414  0.36932360    -0.32700
C2359       C  0.63393130  0.95970335  0.37977765     0.01500
C2360       C  0.63422750  0.98903289  0.38044635    -0.34300
H2361       H  0.61580141  0.91967269  0.39976465     0.12600
H2362       H  0.61040787  0.86112393  0.39495627     0.12400
H2363       H  0.64125406  0.86444872  0.34970634     0.12300
H2364       H  0.64663932  0.92307831  0.35451246     0.11300
C2365       C  0.62454768  0.35893926  0.37417932     0.17600
C2366       C  0.61617031  0.38258536  0.36446374    -0.11500
C2367       C  0.61915080  0.41572721  0.36752893    -0.12300
C2368       C  0.63051461  0.42531837  0.38029592     0.19200
C2369       C  0.63890641  0.40166291  0.39000420    -0.14400
C2370       C  0.63592472  0.36851131  0.38693878    -0.12600
C2371       C  0.63340937  0.45951255  0.38324573     0.00200
C2372       C  0.63431855  0.48884118  0.38405005    -0.32700
C2373       C  0.62165799  0.32478739  0.37117491     0.01500
C2374       C  0.62076681  0.29550437  0.37014190    -0.34300
H2375       H  0.60737128  0.37543316  0.35456658     0.12600
H2376       H  0.61260618  0.43388847  0.35994823     0.12400
H2377       H  0.64771313  0.40881601  0.39989331     0.12300
H2378       H  0.64247962  0.35033928  0.39450547     0.11300
C2379       C  0.73670759  0.09737449  0.37377350     0.17600
C2380       C  0.74628259  0.11273431  0.36105839    -0.11500
C2381       C  0.76404443  0.11027983  0.36106482    -0.12300
C2382       C  0.77231803  0.09248124  0.37379693     0.19200
C2383       C  0.76275456  0.07729056  0.38658629    -0.14400
C2384       C  0.74497958  0.07974852  0.38657989    -0.12600
C2385       C  0.79056405  0.08918421  0.37349905     0.00200
C2386       C  0.80579175  0.08551435  0.37305965    -0.32700
C2387       C  0.71842533  0.09982968  0.37364275     0.01500
C2388       C  0.70315975  0.10285765  0.37324713    -0.34300
H2389       H  0.74001642  0.12648500  0.35111758     0.12600
H2390       H  0.77130841  0.12205933  0.35109893     0.12400
H2391       H  0.76902212  0.06341387  0.39647865     0.12300
H2392       H  0.73770023  0.06782995  0.39649007     0.11300
C2393       C  0.77266282  0.84059325  0.13057442     0.17600
C2394       C  0.76428824  0.81888688  0.14151886    -0.11500
C2395       C  0.74647604  0.81729640  0.14163775    -0.12300
C2396       C  0.73694113  0.83743886  0.13083753     0.19200
C2397       C  0.74532360  0.85900447  0.11983018    -0.14400
C2398       C  0.76312948  0.86059271  0.11970982    -0.12600
C2399       C  0.71859160  0.83594080  0.13107973     0.00200
C2400       C  0.70326172  0.83373391  0.13146005    -0.32700
C2401       C  0.79097918  0.84304569  0.13075460     0.01500
C2402       C  0.80622657  0.84678230  0.13094930    -0.34300
H2403       H  0.77150845  0.80336489  0.15000941     0.12600
H2404       H  0.74014246  0.80048755  0.15018924     0.12400
H2405       H  0.73810420  0.87466082  0.11140656     0.12300
H2406       H  0.76945592  0.87753588  0.11122469     0.11300
C2407       C  0.63150055  0.71234868  0.27062660     0.17600
C2408       C  0.63517451  0.68776844  0.25878489    -0.11500
C2409       C  0.63501762  0.69475883  0.24139894    -0.12300
C2410       C  0.63116177  0.72637341  0.23573874     0.19200
C2411       C  0.62744145  0.75092736  0.24757400    -0.14400
C2412       C  0.62759799  0.74393763  0.26495735    -0.12600
C2413       C  0.63101927  0.73372738  0.21784047     0.00200
C2414       C  0.63083051  0.74099180  0.20299594    -0.32700
C2415       C  0.63174970  0.70508129  0.28854433     0.01500
C2416       C  0.63191314  0.69790125  0.30340854    -0.34300
H2417       H  0.63819222  0.66323747  0.26299306     0.12600
H2418       H  0.63791152  0.67555723  0.23239114     0.12400
H2419       H  0.62443767  0.77546540  0.24336514     0.12300
H2420       H  0.62471441  0.76314892  0.27396144     0.11300
C2421       C  0.62448089  0.57833531  0.13370737     0.17600
C2422       C  0.64105152  0.56624342  0.13158153    -0.11500
C2423       C  0.64364555  0.53324549  0.12780847    -0.12300
C2424       C  0.62966187  0.51230078  0.12607943     0.19200
C2425       C  0.61309897  0.52437286  0.12826824    -0.14400
C2426       C  0.61050596  0.55736194  0.13204030    -0.12600
C2427       C  0.63218800  0.47811119  0.12286338     0.00200
C2428       C  0.63289405  0.44882435  0.12170860    -0.32700
C2429       C  0.62190526  0.61262100  0.13658978     0.01500
C2430       C  0.62109636  0.64194632  0.13735740    -0.34300
H2431       H  0.65193719  0.58237074  0.13271495     0.12600
H2432       H  0.65650129  0.52408717  0.12626912     0.12400
H2433       H  0.60220837  0.50827257  0.12708386     0.12300
H2434       H  0.59764747  0.56653716  0.13352626     0.11300
C2435       C  0.63025310  0.01207452  0.12501889     0.17600
C2436       C  0.63366723  0.02607140  0.14087200    -0.11500
C2437       C  0.63030821  0.05918295  0.14368184    -0.12300
C2438       C  0.62343974  0.07837660  0.13067490     0.19200
C2439       C  0.62000028  0.06437165  0.11482928    -0.14400
C2440       C  0.62335965  0.03125551  0.11201898    -0.12600
C2441       C  0.62092214  0.11282975  0.13319385     0.00200
C2442       C  0.62030611  0.14218645  0.13409747    -0.32700
C2443       C  0.63288750  0.97765421  0.12248612     0.01500
C2444       C  0.63363441  0.94829070  0.12174140    -0.34300
H2445       H  0.63885137  0.01136750  0.15106237     0.12600
H2446       H  0.63315542  0.06984147  0.15592790     0.12400
H2447       H  0.61483026  0.07908598  0.10463612     0.12300
H2448       H  0.62052549  0.02060065  0.09976957     0.11300
C2449       C  0.77205155  0.34429184  0.13146499     0.17600
C2450       C  0.76354598  0.31780057  0.13889006    -0.11500
C2451       C  0.74574192  0.31641304  0.13862532    -0.12300
C2452       C  0.73634838  0.34150543  0.13094586     0.19200
C2453       C  0.74485770  0.36794285  0.12346320    -0.14400
C2454       C  0.76266578  0.36932908  0.12372743    -0.12600
C2455       C  0.71801356  0.33994017  0.13077124     0.00200
C2456       C  0.70271679  0.33709584  0.13092414    -0.32700
C2457       C  0.79036323  0.34618141  0.13200356     0.01500
C2458       C  0.80563308  0.34932969  0.13240697    -0.34300
H2459       H  0.77065866  0.29833012  0.14492825     0.12600
H2460       H  0.73930100  0.29583246  0.14443582     0.12400
H2461       H  0.73774331  0.38746563  0.11747349     0.12300
H2462       H  0.76911041  0.38995869  0.11796700     0.11300
C2463       C  0.63018349  0.22725341  0.23470770     0.17600
C2464       C  0.61491006  0.22653097  0.24393992    -0.11500
C2465       C  0.61509746  0.21980882  0.26136215    -0.12300
C2466       C  0.63055919  0.21381442  0.26968219     0.19200
C2467       C  0.64582551  0.21454678  0.26045011    -0.14400
C2468       C  0.64563806  0.22126627  0.24303479    -0.12600
C2469       C  0.63073442  0.20629753  0.28758024     0.00200
C2470       C  0.63082914  0.19891161  0.30242129    -0.32700
C2471       C  0.63005438  0.23455724  0.21677942     0.01500
C2472       C  0.63011969  0.24152108  0.20187818    -0.34300
H2473       H  0.60287562  0.23117400  0.23768124     0.12600
H2474       H  0.60319937  0.21921828  0.26832817     0.12400
H2475       H  0.65785942  0.20985822  0.26670081     0.12300
H2476       H  0.65753650  0.22181131  0.23606970     0.11300
C2477       C  0.23564569  0.84226962  0.37447256     0.17600
C2478       C  0.24589406  0.86426778  0.36542430    -0.11500
C2479       C  0.26365412  0.86184561  0.36621457    -0.12300
C2480       C  0.27129888  0.83742299  0.37606674     0.19200
C2481       C  0.26105947  0.81546017  0.38516895    -0.14400
C2482       C  0.24328030  0.81788976  0.38438023    -0.12600
C2483       C  0.28960116  0.83433620  0.37637789     0.00200
C2484       C  0.30488100  0.83100451  0.37602231    -0.32700
C2485       C  0.21734139  0.84503124  0.37368830     0.01500
C2486       C  0.20208324  0.84855949  0.37302069    -0.34300
H2487       H  0.24015639  0.88324803  0.35773946     0.12600
H2488       H  0.27141733  0.87887723  0.35906574     0.12400
H2489       H  0.26680771  0.79637494  0.39277599     0.12300
H2490       H  0.23550386  0.80076611  0.39145492     0.11300
C2491       C  0.48643385  0.71852423  0.38430053     0.17600
C2492       C  0.49664317  0.73828593  0.39465895    -0.11500
C2493       C  0.51433288  0.73411030  0.39481728    -0.12300
C2494       C  0.52190010  0.71017155  0.38459239     0.19200
C2495       C  0.51166665  0.69012020  0.37440797    -0.14400
C2496       C  0.49398091  0.69430070  0.37424590    -0.12600
C2497       C  0.54012071  0.70596610  0.38449809     0.00200
C2498       C  0.55519326  0.70028657  0.38402809    -0.32700
C2499       C  0.46834420  0.72416728  0.38349297     0.01500
C2500       C  0.45345238  0.73125236  0.38271886    -0.34300
H2501       H  0.49094562  0.75714786  0.40245823     0.12600
H2502       H  0.52209688  0.74966758  0.40279144     0.12400
H2503       H  0.51737385  0.67143388  0.36650246     0.12300
H2504       H  0.48623247  0.67893401  0.36615679     0.11300
C2505       C  0.38586114  0.57437051  0.37346874     0.17600
C2506       C  0.37141434  0.56377123  0.38237356    -0.11500
C2507       C  0.36884442  0.53047917  0.38538088    -0.12300
C2508       C  0.38074114  0.50766921  0.37951924     0.19200
C2509       C  0.39528341  0.51827247  0.37075319    -0.14400
C2510       C  0.39785345  0.55159176  0.36773995    -0.12600
C2511       C  0.37790016  0.47330452  0.38197299     0.00200
C2512       C  0.37675736  0.44398925  0.38259609    -0.32700
C2513       C  0.38822573  0.60869382  0.37041961     0.01500
C2514       C  0.38860672  0.63803286  0.36932951    -0.34300
H2515       H  0.36209896  0.58124815  0.38691191     0.12600
H2516       H  0.35755776  0.52253455  0.39213935     0.12400
H2517       H  0.40454867  0.50076729  0.36614184     0.12300
H2518       H  0.40909251  0.55954164  0.36090427     0.11300
C2519       C  0.38491744  0.07342142  0.37341002     0.17600
C2520       C  0.39305506  0.05763375  0.38692350    -0.11500
C2521       C  0.38962420  0.02474613  0.39029638    -0.12300
C2522       C  0.37796592  0.00762112  0.38022749     0.19200
C2523       C  0.36987353  0.02338179  0.36668074    -0.14400
C2524       C  0.37330560  0.05626120  0.36330767    -0.12600
C2525       C  0.37516279  0.97336751  0.38304862     0.00200
C2526       C  0.37427201  0.94404829  0.38385287    -0.32700
C2527       C  0.38753788  0.10776315  0.37069537     0.01500
C2528       C  0.38822729  0.13710115  0.36982878    -0.34300
H2529       H  0.40193128  0.07079885  0.39490934     0.12600
H2530       H  0.39608299  0.01266922  0.40068925     0.12400
H2531       H  0.36097837  0.01023485  0.35870732     0.12300
H2532       H  0.36682082  0.06835276  0.35293539     0.11300
C2533       C  0.23668742  0.34070277  0.37233413     0.17600
C2534       C  0.24486424  0.31972374  0.38377211    -0.11500
C2535       C  0.26265565  0.31751124  0.38388527    -0.12300
C2536       C  0.27236435  0.33629737  0.37257150     0.19200
C2537       C  0.26418345  0.35717412  0.36108959    -0.14400
C2538       C  0.24639748  0.35938512  0.36097626    -0.12600
C2539       C  0.29067900  0.33390117  0.37261845     0.00200
C2540       C  0.30597667  0.33105896  0.37248463    -0.32700
C2541       C  0.21838783  0.34358377  0.37244700     0.01500
C2542       C  0.20313452  0.34725922  0.37248247    -0.34300
H2543       H  0.23750020  0.30519921  0.39262684     0.12600
H2544       H  0.26883174  0.30121052  0.39279072     0.12400
H2545       H  0.27154572  0.37174199  0.35225143     0.12300
H2546       H  0.24022704  0.37573234  0.35208943     0.11300
C2547       C  0.52195325  0.21089542  0.38532916     0.17600
C2548       C  0.51472228  0.23730430  0.39401725    -0.11500
C2549       C  0.49703497  0.24108882  0.39442508    -0.12300
C2550       C  0.48652264  0.21845428  0.38618036     0.19200
C2551       C  0.49374289  0.19184348  0.37763595    -0.14400
C2552       C  0.51143493  0.18805135  0.37723310    -0.12600
C2553       C  0.46841767  0.22353855  0.38588568     0.00200
C2554       C  0.45351176  0.23034017  0.38524005    -0.32700
C2555       C  0.54013272  0.20699538  0.38472066     0.01500
C2556       C  0.55516284  0.20132668  0.38395178    -0.34300
H2557       H  0.52273934  0.25503653  0.40035575     0.12600
H2558       H  0.49156406  0.26183084  0.40100336     0.12400
H2559       H  0.48573071  0.17429078  0.37115519     0.12300
H2560       H  0.51691609  0.16747432  0.37052208     0.11300
C2561       C  0.27198572  0.59501083  0.13116144     0.17600
C2562       C  0.26354539  0.57021527  0.12225166    -0.11500
C2563       C  0.24572952  0.56877035  0.12233022    -0.12300
C2564       C  0.23625634  0.59212094  0.13130114     0.19200
C2565       C  0.24469484  0.61686717  0.14023690    -0.14400
C2566       C  0.26250450  0.61831009  0.14015886    -0.12600
C2567       C  0.21792389  0.59029003  0.13152858     0.00200
C2568       C  0.20263988  0.58721352  0.13178183    -0.32700
C2569       C  0.29033019  0.59691726  0.13097076     0.01500
C2570       C  0.30562114  0.60009578  0.13106137    -0.34300
H2571       H  0.27071909  0.55207914  0.11523746     0.12600
H2572       H  0.23934684  0.54946570  0.11541065     0.12400
H2573       H  0.23752256  0.63499766  0.14725816     0.12300
H2574       H  0.26888069  0.63761659  0.14708134     0.11300
C2575       C  0.52204933  0.72330382  0.12087517     0.17600
C2576       C  0.51129942  0.74465978  0.12974627    -0.11500
C2577       C  0.49368498  0.73969906  0.12964180    -0.12300
C2578       C  0.48676517  0.71339029  0.12063313     0.19200
C2579       C  0.49750598  0.69207675  0.11173215    -0.14400
C2580       C  0.51512255  0.69703646  0.11183829    -0.12600
C2581       C  0.46872223  0.70756865  0.12089102     0.00200
C2582       C  0.45382528  0.70064050  0.12132917    -0.32700
C2583       C  0.54014502  0.72864865  0.12101755     0.01500
C2584       C  0.55509285  0.73521504  0.12150434    -0.34300
H2585       H  0.51654040  0.76507237  0.13676165     0.12600
H2586       H  0.48549473  0.75622557  0.13662850     0.12400
H2587       H  0.49226813  0.67156929  0.10478961     0.12300
H2588       H  0.52331940  0.68040644  0.10492953     0.11300
C2589       C  0.37688917  0.71042643  0.23505501     0.17600
C2590       C  0.36484678  0.69533532  0.24561712    -0.11500
C2591       C  0.36450259  0.70234624  0.26299328    -0.12300
C2592       C  0.37621465  0.72445662  0.26992299     0.19200
C2593       C  0.38820129  0.73966502  0.25934667    -0.14400
C2594       C  0.38854546  0.73265548  0.24197330    -0.12600
C2595       C  0.37599224  0.73151047  0.28785019     0.00200
C2596       C  0.37603176  0.73817930  0.30276931    -0.32700
C2597       C  0.37738209  0.70283664  0.21719018     0.01500
C2598       C  0.37772540  0.69566596  0.20233590    -0.34300
H2599       H  0.35576963  0.67809305  0.24043324     0.12600
H2600       H  0.35516165  0.69045825  0.27102013     0.12400
H2601       H  0.39731034  0.75683764  0.26453754     0.12300
H2602       H  0.39792160  0.74446911  0.23395764     0.11300
C2603       C  0.38413119  0.85846621  0.13317777     0.17600
C2604       C  0.38172418  0.86976581  0.11657234    -0.11500
C2605       C  0.37817048  0.90272104  0.11357854    -0.12300
C2606       C  0.37694713  0.92450228  0.12719341     0.19200
C2607       C  0.37937493  0.91324786  0.14381635    -0.14400
C2608       C  0.38292568  0.88024887  0.14681514    -0.12600
C2609       C  0.37411673  0.95869225  0.12414643     0.00200
C2610       C  0.37338422  0.98797755  0.12288416    -0.32700
C2611       C  0.38700997  0.82421657  0.13604609     0.01500
C2612       C  0.38794176  0.79486097  0.13665724    -0.34300
H2613       H  0.38252441  0.85305345  0.10594823     0.12600
H2614       H  0.37645981  0.91122127  0.10068080     0.12400
H2615       H  0.37859919  0.93000026  0.15442651     0.12300
H2616       H  0.38465384  0.87173441  0.15970811     0.11300
C2617       C  0.37842843  0.42465108  0.12538075     0.17600
C2618       C  0.38219407  0.41375692  0.14181594    -0.11500
C2619       C  0.38507889  0.38056077  0.14489406    -0.12300
C2620       C  0.38426264  0.35813965  0.13152414     0.19200
C2621       C  0.38052455  0.36903065  0.11508138    -0.14400
C2622       C  0.37763958  0.40223283  0.11200271    -0.12600
C2623       C  0.38667903  0.32380976  0.13459273     0.00200
C2624       C  0.38741221  0.29446363  0.13555315    -0.32700
C2625       C  0.37596500  0.45899089  0.12234270     0.01500
C2626       C  0.37523687  0.48835349  0.12144358    -0.34300
H2627       H  0.38292915  0.43094657  0.15223598     0.12600
H2628       H  0.38788340  0.37239843  0.15765849     0.12400
H2629       H  0.37979153  0.35183470  0.10466306     0.12300
H2630       H  0.37483493  0.41039548  0.09923867     0.11300
C2631       C  0.23586821  0.09047121  0.13158608     0.17600
C2632       C  0.24550716  0.06900814  0.14158219    -0.11500
C2633       C  0.26331498  0.07081056  0.14143362    -0.12300
C2634       C  0.27156488  0.09403932  0.13125721     0.19200
C2635       C  0.26191345  0.11546150  0.12126656    -0.14400
C2636       C  0.24412125  0.11366098  0.12141598    -0.12600
C2637       C  0.28988738  0.09632115  0.13119707     0.00200
C2638       C  0.30516281  0.09964653  0.13119974    -0.32700
C2639       C  0.21754664  0.08849745  0.13165210     0.01500
C2640       C  0.20225180  0.08567940  0.13169143    -0.34300
H2641       H  0.23926410  0.05092902  0.14947810     0.12600
H2642       H  0.27062992  0.05416682  0.14924551     0.12400
H2643       H  0.26814170  0.13356968  0.11338068     0.12300
H2644       H  0.23681022  0.13033500  0.11361893     0.11300
C2645       C  0.52190069  0.22280729  0.11966045     0.17600
C2646       C  0.51120820  0.24241200  0.10970743    -0.11500
C2647       C  0.49356682  0.23750508  0.10996982    -0.12300
C2648       C  0.48652073  0.21299814  0.12021679     0.19200
C2649       C  0.49721536  0.19341915  0.13018667    -0.14400
C2650       C  0.51485456  0.19832541  0.12992469    -0.12600
C2651       C  0.46839109  0.20742020  0.12034027     0.00200
C2652       C  0.45342942  0.20067917  0.12072670    -0.32700
C2653       C  0.54000601  0.22858626  0.11970418     0.01500
C2654       C  0.55493847  0.23551281  0.12004666    -0.34300
H2655       H  0.51650397  0.26154215  0.10179511     0.12600
H2656       H  0.48544421  0.25275954  0.10218939     0.12400
H2657       H  0.49191734  0.17435800  0.13814322     0.12300
H2658       H  0.52297209  0.18313572  0.13774708     0.11300
C2659       C  0.37872417  0.21997131  0.27001804     0.17600
C2660       C  0.36448062  0.20485827  0.26273338    -0.11500
C2661       C  0.36419885  0.19815445  0.24532742    -0.12300
C2662       C  0.37814261  0.20660604  0.23510440     0.19200
C2663       C  0.39244161  0.22144048  0.24241813    -0.14400
C2664       C  0.39272363  0.22814144  0.25981628    -0.12600
C2665       C  0.37778255  0.20014544  0.21713668     0.00200
C2666       C  0.37759436  0.19403783  0.20216468    -0.32700
C2667       C  0.37885706  0.22769932  0.28785784     0.01500
C2668       C  0.37891531  0.23520746  0.30266143    -0.34300
H2669       H  0.35357345  0.19844906  0.27047866     0.12600
H2670       H  0.35308749  0.18659279  0.23983228     0.12400
H2671       H  0.40331320  0.22800874  0.23465916     0.12300
H2672       H  0.40380278  0.23985189  0.26528937     0.11300
C2673       C  0.12346917  0.83812236  0.48376794     0.17600
C2674       C  0.10967553  0.85161781  0.49263814    -0.11500
C2675       C  0.11012214  0.85389803  0.51034588    -0.12300
C2676       C  0.12436885  0.84271664  0.51934094     0.19200
C2677       C  0.13802257  0.82859773  0.51050581    -0.14400
C2678       C  0.13757519  0.82631349  0.49277565    -0.12600
C2679       C  0.12530266  0.84747031  0.53747435     0.00200
C2680       C  0.12589563  0.85375372  0.55244295    -0.32700
C2681       C  0.12355826  0.83848954  0.46544769     0.01500
C2682       C  0.12352021  0.84176656  0.45021263    -0.34300
H2683       H  0.09874150  0.86104205  0.48584275     0.12600
H2684       H  0.09951694  0.86501024  0.51699081     0.12400
H2685       H  0.14914943  0.82000364  0.51728085     0.12300
H2686       H  0.14837054  0.81602290  0.48608201     0.11300
C2687       C  0.12638986  0.33778744  0.48392006     0.17600
C2688       C  0.14185840  0.34424412  0.49210835    -0.11500
C2689       C  0.14246459  0.34642470  0.50979896    -0.12300
C2690       C  0.12760409  0.34215750  0.51940458     0.19200
C2691       C  0.11219512  0.33504033  0.51124175    -0.14400
C2692       C  0.11158771  0.33286427  0.49353926    -0.12600
C2693       C  0.12797280  0.34712152  0.53748822     0.00200
C2694       C  0.12811313  0.35353485  0.55241996    -0.32700
C2695       C  0.12552847  0.33860559  0.46567710     0.01500
C2696       C  0.12497330  0.34220083  0.45050323    -0.34300
H2697       H  0.15335795  0.34834783  0.48480311     0.12600
H2698       H  0.15442607  0.35215582  0.51595315     0.12400
H2699       H  0.10060045  0.33191105  0.51852622     0.12300
H2700       H  0.09952938  0.32811418  0.48734844     0.11300
C2701       C  0.13385153  0.69121597  0.62331250     0.17600
C2702       C  0.11839620  0.67629623  0.61894892    -0.11500
C2703       C  0.11573794  0.64318805  0.62248145    -0.12300
C2704       C  0.12848395  0.62489155  0.63048069     0.19200
C2705       C  0.14394732  0.63979065  0.63483596    -0.14400
C2706       C  0.14660539  0.67290977  0.63130449    -0.12600
C2707       C  0.12611005  0.59045297  0.63330263     0.00200
C2708       C  0.12524733  0.56109319  0.63411200    -0.32700
C2709       C  0.13617365  0.72569076  0.62050051     0.01500
C2710       C  0.13684610  0.75507264  0.61957738    -0.34300
H2711       H  0.10838463  0.69028699  0.61290207     0.12600
H2712       H  0.10379925  0.63184174  0.61891875     0.12400
H2713       H  0.15395488  0.62578950  0.64088443     0.12300
H2714       H  0.15854112  0.68425968  0.63487079     0.11300
C2715       C  0.13399709  0.19123543  0.62373129     0.17600
C2716       C  0.12008884  0.17526568  0.61634735    -0.11500
C2717       C  0.11712059  0.14229145  0.61981690    -0.12300
C2718       C  0.12799664  0.12527565  0.63075419     0.19200
C2719       C  0.14186151  0.14127940  0.63821485    -0.14400
C2720       C  0.14482877  0.17428035  0.63474715    -0.12600
C2721       C  0.12564009  0.09088564  0.63332082     0.00200
C2722       C  0.12485763  0.06156452  0.63383225    -0.32700
C2723       C  0.13649735  0.22547384  0.62078947     0.01500
C2724       C  0.13707961  0.25474480  0.61966073    -0.34300
H2725       H  0.11154462  0.18830590  0.60795173     0.12600
H2726       H  0.10646356  0.13000612  0.61386991     0.12400
H2727       H  0.15043125  0.12819930  0.64656728     0.12300
H2728       H  0.15551252  0.18655807  0.64065050     0.11300
C2729       C  0.12760644  0.59447124  0.02006440     0.17600
C2730       C  0.11579454  0.61170857  0.01018255    -0.11500
C2731       C  0.11634453  0.60945633  0.99245641    -0.12300
C2732       C  0.12870296  0.58995825  0.98454041     0.19200
C2733       C  0.14070013  0.57326776  0.99442899    -0.14400
C2734       C  0.14015468  0.57552262  0.01211571    -0.12600
C2735       C  0.12855798  0.58543794  0.96639837     0.00200
C2736       C  0.12841502  0.57911049  0.95144230    -0.32700
C2737       C  0.12630714  0.59429854  0.03831265     0.01500
C2738       C  0.12545640  0.59085012  0.05349840    -0.34300
H2739       H  0.10596721  0.62628475  0.01617041     0.12600
H2740       H  0.10694234  0.62234162  0.98495794     0.12400
H2741       H  0.15025981  0.55798258  0.98848195     0.12300
H2742       H  0.14929068  0.56192100  0.01960565     0.11300
C2743       C  0.13138646  0.46446623  0.73429388     0.17600
C2744       C  0.14694534  0.46431307  0.74298572    -0.11500
C2745       C  0.14723123  0.46572438  0.76071515    -0.12300
C2746       C  0.13195638  0.46722811  0.76989424     0.19200
C2747       C  0.11638094  0.46744437  0.76121223    -0.14400
C2748       C  0.11609401  0.46602202  0.74346366    -0.12600
C2749       C  0.13232278  0.46968898  0.78814647     0.00200
C2750       C  0.13281880  0.47379237  0.80330479    -0.32700
C2751       C  0.13117930  0.46165269  0.71605197     0.01500
C2752       C  0.13143329  0.45709949  0.70092094    -0.34300
H2753       H  0.15884987  0.46294544  0.73606106     0.12600
H2754       H  0.15935527  0.46571624  0.76725835     0.12400
H2755       H  0.10448400  0.46877959  0.76815148     0.12300
H2756       H  0.10397499  0.46598165  0.73691166     0.11300
C2757       C  0.12442314  0.09660059  0.01968888     0.17600
C2758       C  0.13841361  0.10770024  0.01023662    -0.11500
C2759       C  0.13860500  0.10405603  0.99257114    -0.12300
C2760       C  0.12481436  0.08927350  0.98429257     0.19200
C2761       C  0.11073451  0.07865864  0.99372896    -0.14400
C2762       C  0.11054083  0.08230494  0.01135706    -0.12600
C2763       C  0.12536023  0.08351148  0.96626843     0.00200
C2764       C  0.12565637  0.07670964  0.95138110    -0.32700
C2765       C  0.12472758  0.09748125  0.03796789     0.01500
C2766       C  0.12467311  0.09445007  0.05319724    -0.34300
H2767       H  0.14929556  0.11850123  0.01653836     0.12600
H2768       H  0.14960984  0.11218733  0.98542215     0.12400
H2769       H  0.10004657  0.06702049  0.98749390     0.12300
H2770       H  0.09972604  0.07333433  0.01852616     0.11300
C2771       C  0.13257875  0.74051820  0.88009670     0.17600
C2772       C  0.11816576  0.75646284  0.88651109    -0.11500
C2773       C  0.11546456  0.78946591  0.88287884    -0.12300
C2774       C  0.12711901  0.80650708  0.87273915     0.19200
C2775       C  0.14149639  0.79052560  0.86627154    -0.14400
C2776       C  0.14419765  0.75752344  0.86990412    -0.12600
C2777       C  0.12502507  0.84091634  0.87003249     0.00200
C2778       C  0.12454329  0.87025609  0.86945957    -0.32700
C2779       C  0.13490666  0.70627984  0.88316800     0.01500
C2780       C  0.13564660  0.67702067  0.88428973    -0.34300
H2781       H  0.10902971  0.74338412  0.89427159     0.12600
H2782       H  0.10440003  0.80173754  0.88807288     0.12400
H2783       H  0.15066269  0.80362935  0.85855852     0.12300
H2784       H  0.15529210  0.74527663  0.86475848     0.11300
C2785       C  0.13077053  0.30659583  0.87384665     0.17600
C2786       C  0.14607003  0.29109381  0.86947481    -0.11500
C2787       C  0.14823125  0.25779948  0.87279649    -0.12300
C2788       C  0.13513501  0.24004710  0.88059077     0.19200
C2789       C  0.11984801  0.25555753  0.88494602    -0.14400
C2790       C  0.11768610  0.28881170  0.88162175    -0.12600
C2791       C  0.13692019  0.20556776  0.88329484     0.00200
C2792       C  0.13702228  0.17625009  0.88425448    -0.32700
C2793       C  0.12883426  0.34108063  0.87121175     0.01500
C2794       C  0.12802578  0.37039543  0.87050060    -0.34300
H2795       H  0.15631673  0.30474783  0.86358410     0.12600
H2796       H  0.16003871  0.24590938  0.86924947     0.12400
H2797       H  0.10959685  0.24192271  0.89084265     0.12300
H2798       H  0.10587137  0.30067031  0.88517178     0.11300
C2799       C  0.13280737  0.96434028  0.73423000     0.17600
C2800       C  0.11748163  0.96443859  0.74337396    -0.11500
C2801       C  0.11770640  0.96613648  0.76110530    -0.12300
C2802       C  0.13325873  0.96762744  0.76978231     0.19200
C2803       C  0.14857048  0.96746017  0.76064070    -0.14400
C2804       C  0.14834624  0.96576689  0.74292353    -0.12600
C2805       C  0.13352864  0.97030211  0.78799936     0.00200
C2806       C  0.13381355  0.97434583  0.80314990    -0.32700
C2807       C  0.13265030  0.96183504  0.71599020     0.01500
C2808       C  0.13278076  0.95782392  0.70082353    -0.34300
H2809       H  0.10538752  0.96317605  0.73680889     0.12600
H2810       H  0.10578145  0.96638595  0.76803235     0.12400
H2811       H  0.16066712  0.96873634  0.76720158     0.12300
H2812       H  0.16027763  0.96554076  0.73601005     0.11300
C2813       C  0.88368944  0.83886308  0.01924845     0.17600
C2814       C  0.89761509  0.85249517  0.01064676    -0.11500
C2815       C  0.89734226  0.85550479  0.99297721    -0.12300
C2816       C  0.88313572  0.84492671  0.98375020     0.19200
C2817       C  0.86931487  0.83073154  0.99230219    -0.14400
C2818       C  0.86958636  0.82772148  0.01000944    -0.12600
C2819       C  0.88251054  0.85012757  0.96565427     0.00200
C2820       C  0.88226686  0.85638800  0.95068250    -0.32700
C2821       C  0.88352951  0.83845669  0.03755601     0.01500
C2822       C  0.88373579  0.84146342  0.05279580    -0.34300
H2823       H  0.90853712  0.86143157  0.01763173     0.12600
H2824       H  0.90806873  0.86666419  0.98654329     0.12400
H2825       H  0.85821763  0.82259983  0.98532975     0.12300
H2826       H  0.85868207  0.81736312  0.01650317     0.11300
C2827       C  0.02112637  0.97408854  0.87979090     0.17600
C2828       C  0.01214647  0.97461161  0.89515528    -0.11500
C2829       C  0.99437200  0.97229093  0.89519345    -0.12300
C2830       C  0.98548519  0.96951800  0.87986668     0.19200
C2831       C  0.99445586  0.96920975  0.86449116    -0.14400
C2832       C  0.01223711  0.97153258  0.86445287    -0.12600
C2833       C  0.96725258  0.96570463  0.87997194     0.00200
C2834       C  0.95212196  0.96063177  0.88015668    -0.32700
C2835       C  0.03942039  0.97654118  0.87978335     0.01500
C2836       C  0.05468343  0.97979346  0.87999479    -0.34300
H2837       H  0.01888240  0.97668067  0.90708816     0.12600
H2838       H  0.98757686  0.97240137  0.90715850     0.12400
H2839       H  0.98772438  0.96692860  0.85256682     0.12300
H2840       H  0.01904555  0.97120027  0.85249663     0.11300
C2841       C  0.88160373  0.34177098  0.01992801     0.17600
C2842       C  0.89600595  0.33266395  0.01053156    -0.11500
C2843       C  0.89587802  0.33514431  0.99282755    -0.12300
C2844       C  0.88135135  0.34675867  0.98445559     0.19200
C2845       C  0.86685331  0.35527662  0.99383127    -0.14400
C2846       C  0.86698046  0.35279336  0.01151531    -0.12600
C2847       C  0.88156168  0.35153163  0.96637056     0.00200
C2848       C  0.88172708  0.35732835  0.95138077    -0.32700
C2849       C  0.88218184  0.34215047  0.03818692     0.01500
C2850       C  0.88264282  0.34554093  0.05337717    -0.34300
H2851       H  0.90743354  0.32436639  0.01689957     0.12600
H2852       H  0.90719138  0.32864359  0.98570962     0.12400
H2853       H  0.85558394  0.36444904  0.98750159     0.12300
H2854       H  0.85581948  0.36015241  0.01864592     0.11300
C2855       C  0.88443519  0.62328742  0.87350171     0.17600
C2856       C  0.89753183  0.64126643  0.88109072    -0.11500
C2857       C  0.89525233  0.67449904  0.88440332    -0.12300
C2858       C  0.87983448  0.68970123  0.88023066     0.19200
C2859       C  0.86674812  0.67171895  0.87262434    -0.14400
C2860       C  0.86902761  0.63849726  0.86931083    -0.12600
C2861       C  0.87778209  0.72408495  0.88296109     0.00200
C2862       C  0.87696635  0.75335681  0.88381949    -0.32700
C2863       C  0.88637170  0.58885359  0.87091972     0.01500
C2864       C  0.88670080  0.55954360  0.87023273    -0.34300
H2865       H  0.90942905  0.62958631  0.88450228     0.12600
H2866       H  0.90549260  0.68833545  0.89015629     0.12400
H2867       H  0.85484227  0.68338110  0.86922587     0.12300
H2868       H  0.85877984  0.62465791  0.86356991     0.11300
C2869       C  0.87849613  0.12390410  0.87360168     0.17600
C2870       C  0.88694907  0.13831530  0.88732903    -0.11500
C2871       C  0.88447373  0.17140523  0.89094755    -0.12300
C2872       C  0.87346791  0.19009183  0.88089431     0.19200
C2873       C  0.86499515  0.17564207  0.86719301    -0.14400
C2874       C  0.86747307  0.14256828  0.86357330    -0.12600
C2875       C  0.87179066  0.22456464  0.88380348     0.00200
C2876       C  0.87160482  0.25393315  0.88450484    -0.32700
C2877       C  0.88037116  0.08956816  0.87046369     0.01500
C2878       C  0.88091924  0.06028232  0.86934840    -0.34300
H2879       H  0.89538224  0.12396155  0.89524737     0.12600
H2880       H  0.89121204  0.18244542  0.90146818     0.12400
H2881       H  0.85659380  0.18999794  0.85924465     0.12300
H2882       H  0.86076138  0.13154271  0.85303128     0.11300
C2883       C  0.98827316  0.45695666  0.88178373     0.17600
C2884       C  0.99576230  0.48800060  0.88242006    -0.11500
C2885       C  0.01349368  0.49109841  0.88310686    -0.12300
C2886       C  0.02384875  0.46319002  0.88318676     0.19200
C2887       C  0.01636325  0.43211694  0.88259417    -0.14400
C2888       C  0.99861615  0.42901548  0.88190886    -0.12600
C2889       C  0.04211271  0.46671353  0.88372835     0.00200
C2890       C  0.05726461  0.47171509  0.88392666    -0.32700
C2891       C  0.97001257  0.45369583  0.88101787     0.01500
C2892       C  0.95478430  0.44980098  0.88059364    -0.34300
H2893       H  0.98791109  0.50977237  0.88235544     0.12600
H2894       H  0.01913385  0.51524965  0.88354110     0.12400
H2895       H  0.02422318  0.41035785  0.88263430     0.12300
H2896       H  0.99296581  0.40487417  0.88144035     0.11300
C2897       C  0.88407067  0.59917344  0.48400211     0.17600
C2898       C  0.89915545  0.59558834  0.49331492    -0.11500
C2899       C  0.89854173  0.59257166  0.51099484    -0.12300
C2900       C  0.88283925  0.59310315  0.51947833     0.19200
C2901       C  0.86779467  0.59752539  0.51020672    -0.14400
C2902       C  0.86840827  0.60054152  0.49252785    -0.12600
C2903       C  0.88209217  0.58698774  0.53749207     0.00200
C2904       C  0.88161127  0.57966838  0.55232788    -0.32700
C2905       C  0.88453553  0.59859444  0.46570596     0.01500
C2906       C  0.88482810  0.59478482  0.45051839    -0.34300
H2907       H  0.91133474  0.59422779  0.48688045     0.12600
H2908       H  0.91025897  0.58899969  0.51799636     0.12400
H2909       H  0.85557075  0.59781173  0.51659224     0.12300
H2910       H  0.85664589  0.60303984  0.48547895     0.11300
C2911       C  0.02229045  0.46178820  0.61991867     0.17600
C2912       C  0.01322723  0.46384850  0.63518280    -0.11500
C2913       C  0.99550164  0.46678516  0.63497788    -0.12300
C2914       C  0.98676816  0.46760334  0.61951272     0.19200
C2915       C  0.99582962  0.46566968  0.60422780    -0.14400
C2916       C  0.01357446  0.46272347  0.60443249    -0.12600
C2917       C  0.96855599  0.47105970  0.61940362     0.00200
C2918       C  0.95338565  0.47536776  0.61967660    -0.32700
C2919       C  0.04047393  0.45793703  0.62019086     0.01500
C2920       C  0.05562984  0.45351620  0.62050664    -0.34300
H2921       H  0.01985057  0.46306677  0.64721974     0.12600
H2922       H  0.98861014  0.46840709  0.64685849     0.12400
H2923       H  0.98919314  0.46642391  0.59219762     0.12300
H2924       H  0.02047642  0.46106566  0.59255836     0.11300
C2925       C  0.87680709  0.46239230  0.76922875     0.17600
C2926       C  0.89231772  0.46140840  0.76041175    -0.11500
C2927       C  0.89250714  0.46276132  0.74266674    -0.12300
C2928       C  0.87718056  0.46500050  0.73363978     0.19200
C2929       C  0.86167762  0.46579550  0.74245809    -0.14400
C2930       C  0.86148867  0.46444995  0.76018948    -0.12600
C2931       C  0.87732993  0.46789219  0.71541260     0.00200
C2932       C  0.87712665  0.47252384  0.70029336    -0.32700
C2933       C  0.87656612  0.46034610  0.78749042     0.01500
C2934       C  0.87628561  0.45664747  0.80268065    -0.34300
H2935       H  0.90424252  0.45961967  0.76724606     0.12600
H2936       H  0.90458072  0.46227850  0.73600552     0.12400
H2937       H  0.84975006  0.46766349  0.73563368     0.12300
H2938       H  0.84941281  0.46504046  0.76684324     0.11300
C2939       C  0.88252096  0.09691410  0.48378128     0.17600
C2940       C  0.89748044  0.09969411  0.49334864    -0.11500
C2941       C  0.89684457  0.09711022  0.51102909    -0.12300
C2942       C  0.88124937  0.09171985  0.51922119     0.19200
C2943       C  0.86624632  0.08956933  0.50969084    -0.14400
C2944       C  0.86688187  0.09215956  0.49201341    -0.12600
C2945       C  0.88079670  0.08629237  0.53724234     0.00200
C2946       C  0.88063075  0.07946995  0.55210835    -0.32700
C2947       C  0.88335616  0.09628526  0.46553006     0.01500
C2948       C  0.88391192  0.09252892  0.45036281    -0.34300
H2949       H  0.90966377  0.10304902  0.48712446     0.12600
H2950       H  0.90853978  0.09855987  0.51826759     0.12400
H2951       H  0.85413552  0.08515834  0.51588414     0.12300
H2952       H  0.85525522  0.08964729  0.48474608     0.11300
C2953       C  0.87840294  0.80594460  0.62838847     0.17600
C2954       C  0.88794997  0.78966541  0.61598995    -0.11500
C2955       C  0.88532720  0.75638420  0.61306896    -0.12300
C2956       C  0.87308725  0.73931171  0.62248135     0.19200
C2957       C  0.86362106  0.75550872  0.63498355    -0.14400
C2958       C  0.86624144  0.78882905  0.63790262    -0.12600
C2959       C  0.87094643  0.70483063  0.61993952     0.00200
C2960       C  0.87061069  0.67549848  0.61900592    -0.32700
C2961       C  0.88039541  0.84056502  0.63056351     0.01500
C2962       C  0.88115466  0.86992781  0.63096400    -0.34300
H2963       H  0.89730357  0.80275514  0.60849748     0.12600
H2964       H  0.89284009  0.74397271  0.60350603     0.12400
H2965       H  0.85425868  0.74240020  0.64245721     0.12300
H2966       H  0.85871726  0.80127099  0.64744553     0.11300
C2967       C  0.87584998  0.24068241  0.62562775     0.17600
C2968       C  0.86649554  0.25587303  0.63853939    -0.11500
C2969       C  0.86919523  0.28887521  0.64218585    -0.12300
C2970       C  0.88133354  0.30664294  0.63298802     0.19200
C2971       C  0.89072861  0.29139681  0.62012638    -0.14400
C2972       C  0.88802568  0.25842183  0.61647790    -0.12600
C2973       C  0.88328951  0.34105366  0.63577581     0.00200
C2974       C  0.88394230  0.37039580  0.63608353    -0.32700
C2975       C  0.87365005  0.20646565  0.62245061     0.01500
C2976       C  0.87301709  0.17722795  0.62119270    -0.34300
H2977       H  0.85715931  0.24221248  0.64577549     0.12600
H2978       H  0.86173768  0.30057795  0.65202740     0.12400
H2979       H  0.90000882  0.30507576  0.61282765     0.12300
H2980       H  0.89542127  0.24677340  0.60657118     0.11300
C2981       C  0.02178724  0.96513525  0.62214875     0.17600
C2982       C  0.01128583  0.93745584  0.62272577    -0.11500
C2983       C  0.99356344  0.94091398  0.62265366    -0.12300
C2984       C  0.98622236  0.97207978  0.62200091     0.19200
C2985       C  0.99671078  0.99981060  0.62146996    -0.14400
C2986       C  0.01445644  0.99634856  0.62154294    -0.12600
C2987       C  0.96795958  0.97555652  0.62174305     0.00200
C2988       C  0.95270360  0.97905457  0.62142196    -0.32700
C2989       C  0.04003800  0.96127091  0.62213858     0.01500
C2990       C  0.05519885  0.95638058  0.62213304    -0.34300
H2991       H  0.01680120  0.91320276  0.62319027     0.12600
H2992       H  0.98559562  0.91930884  0.62305399     0.12400
H2993       H  0.99117772  0.02404611  0.62094455     0.12300
H2994       H  0.02243506  0.01793558  0.62109101     0.11300
C2995       C  0.87498930  0.95811912  0.76776407     0.17600
C2996       C  0.86063284  0.94804694  0.75858835    -0.11500
C2997       C  0.86070079  0.94932998  0.74084525    -0.12300
C2998       C  0.87514025  0.96061636  0.73216966     0.19200
C2999       C  0.88956320  0.97032472  0.74134190    -0.14400
C3000       C  0.88949413  0.96904507  0.75908068    -0.12600
C3001       C  0.87486294  0.96393016  0.71396059     0.00200
C3002       C  0.87456326  0.96918243  0.69889609    -0.32700
C3003       C  0.87496113  0.95654062  0.78603872     0.01500
C3004       C  0.87494109  0.95331294  0.80125924    -0.34300
H3005       H  0.84937731  0.93934701  0.76514591     0.12600
H3006       H  0.84944577  0.94189384  0.73391298     0.12400
H3007       H  0.90077860  0.97923635  0.73479314     0.12300
H3008       H  0.90070779  0.97669179  0.76601721     0.11300
C3009       C  0.38337336  0.83849357  0.48514671     0.17600
C3010       C  0.37840310  0.86587953  0.49463489    -0.11500
C3011       C  0.37747028  0.86399291  0.51237972    -0.12300
C3012       C  0.38148699  0.83469617  0.52072071     0.19200
C3013       C  0.38646166  0.80739135  0.51120352    -0.14400
C3014       C  0.38739440  0.80927282  0.49351392    -0.12600
C3015       C  0.38055018  0.83223683  0.53898699     0.00200
C3016       C  0.38022442  0.82754972  0.55412835    -0.32700
C3017       C  0.38410110  0.83980851  0.46684879     0.01500
C3018       C  0.38463476  0.83784496  0.45156247    -0.34300
H3019       H  0.37520967  0.88859009  0.48833189     0.12600
H3020       H  0.37359802  0.88529072  0.51956775     0.12400
H3021       H  0.38959450  0.78459923  0.51746506     0.12300
H3022       H  0.39120410  0.78788762  0.48635348     0.11300
C3023       C  0.27220129  0.84166885  0.63637414     0.17600
C3024       C  0.26218244  0.81338127  0.63742837    -0.11500
C3025       C  0.24442805  0.81562892  0.63667574    -0.12300
C3026       C  0.23661549  0.84618320  0.63485269     0.19200
C3027       C  0.24663390  0.87450760  0.63391604    -0.14400
C3028       C  0.26439542  0.87225841  0.63466463    -0.12600
C3029       C  0.21835543  0.84863617  0.63384288     0.00200
C3030       C  0.20319075  0.85297155  0.63299643    -0.32700
C3031       C  0.29046432  0.83898279  0.63663551     0.01500
C3032       C  0.30561383  0.83430722  0.63644142    -0.34300
H3033       H  0.26810170  0.78959142  0.63871793     0.12600
H3034       H  0.23681646  0.79359004  0.63742203     0.12400
H3035       H  0.24071846  0.89827650  0.63251464     0.12300
H3036       H  0.27201895  0.89427042  0.63380419     0.11300
C3037       C  0.38194649  0.34540793  0.48394708     0.17600
C3038       C  0.36645673  0.34029641  0.49239999    -0.11500
C3039       C  0.36605291  0.33824291  0.51010902    -0.12300
C3040       C  0.38114075  0.34127574  0.51945048     0.19200
C3041       C  0.39658477  0.34690550  0.51101913    -0.14400
C3042       C  0.39698868  0.34895447  0.49331366    -0.12600
C3043       C  0.38094982  0.33672722  0.53755636     0.00200
C3044       C  0.38107965  0.33083744  0.55253963    -0.32700
C3045       C  0.38257190  0.34469846  0.46568724     0.01500
C3046       C  0.38315692  0.34114782  0.45050802    -0.34300
H3047       H  0.35476727  0.33722646  0.48529154     0.12600
H3048       H  0.35405481  0.33365813  0.51648212     0.12400
H3049       H  0.40834520  0.34905788  0.51810339     0.12300
H3050       H  0.40905956  0.35262459  0.48692105     0.11300
C3051       C  0.38037077  0.56219110  0.63327855     0.17600
C3052       C  0.37552521  0.55202388  0.61700789    -0.11500
C3053       C  0.37266121  0.51892483  0.61370074    -0.12300
C3054       C  0.37458670  0.49589235  0.62667695     0.19200
C3055       C  0.37942801  0.50605588  0.64295292    -0.14400
C3056       C  0.38229331  0.53916701  0.64626154    -0.12600
C3057       C  0.37226949  0.46167953  0.62328705     0.00200
C3058       C  0.37182178  0.43240158  0.62183911    -0.32700
C3059       C  0.38287789  0.59638741  0.63656129     0.01500
C3060       C  0.38368868  0.62570252  0.63755014    -0.34300
H3061       H  0.37394083  0.56969832  0.60689605     0.12600
H3062       H  0.36901903  0.51130737  0.60106035     0.12400
H3063       H  0.38104752  0.48836825  0.65305202     0.12300
H3064       H  0.38596524  0.54678769  0.65889267     0.11300
C3065       C  0.37720915  0.99555106  0.62313053     0.17600
C3066       C  0.37250807  0.00964547  0.63862802    -0.11500
C3067       C  0.37557915  0.04277086  0.64159757    -0.12300
C3068       C  0.38344092  0.06185810  0.62910784     0.19200
C3069       C  0.38816860  0.04776094  0.61360733    -0.14400
C3070       C  0.38510014  0.01460567  0.61063740    -0.12600
C3071       C  0.38567913  0.09629724  0.63174848     0.00200
C3072       C  0.38610029  0.12563277  0.63269613    -0.32700
C3073       C  0.37478397  0.96116090  0.62054449     0.01500
C3074       C  0.37396834  0.93182997  0.62002407    -0.34300
H3075       H  0.36653394  0.99500385  0.64842144     0.12600
H3076       H  0.37174402  0.05352229  0.65355920     0.12400
H3077       H  0.39411814  0.06242497  0.60380924     0.12300
H3078       H  0.38891996  0.00383667  0.59867459     0.11300
C3079       C  0.23594841  0.33995526  0.63527911     0.17600
C3080       C  0.24391188  0.31651636  0.62503265    -0.11500
C3081       C  0.26170225  0.31439215  0.62459238    -0.12300
C3082       C  0.27163515  0.33574300  0.63435625     0.19200
C3083       C  0.26367166  0.35914930  0.64462039    -0.14400
C3084       C  0.24588192  0.36127093  0.64506205    -0.12600
C3085       C  0.28995160  0.33323100  0.63396295     0.00200
C3086       C  0.30517990  0.32923989  0.63352272    -0.32700
C3087       C  0.21765438  0.34309096  0.63530000     0.01500
C3088       C  0.20252252  0.34826925  0.63495563    -0.34300
H3089       H  0.23638760  0.30003441  0.61733410     0.12600
H3090       H  0.26771084  0.29616354  0.61662082     0.12400
H3091       H  0.27119826  0.37575678  0.65224335     0.12300
H3092       H  0.23987689  0.37963550  0.65295153     0.11300
C3093       C  0.38431458  0.58703386  0.02066866     0.17600
C3094       C  0.36889394  0.58362848  0.01190372    -0.11500
C3095       C  0.36853248  0.58627537  0.99420506    -0.12300
C3096       C  0.38358268  0.59237780  0.98516569     0.19200
C3097       C  0.39905843  0.59507934  0.99389810    -0.14400
C3098       C  0.39942066  0.59242427  0.01159262    -0.12600
C3099       C  0.38297904  0.59810264  0.96712812     0.00200
C3100       C  0.38245689  0.60528656  0.95228626    -0.32700
C3101       C  0.38447688  0.58753430  0.03896292     0.01500
C3102       C  0.38465455  0.59108109  0.05416496    -0.34300
H3103       H  0.35710783  0.57973204  0.01876987     0.12600
H3104       H  0.35647483  0.58436076  0.98761564     0.12400
H3105       H  0.41076497  0.60002134  0.98707482     0.12300
H3106       H  0.41140137  0.59537488  0.01821905     0.11300
C3107       C  0.27138441  0.60172450  0.87179100     0.17600
C3108       C  0.26325610  0.57571867  0.88002795    -0.11500
C3109       C  0.24553331  0.57277128  0.87931185    -0.12300
C3110       C  0.23585442  0.59583217  0.87037944     0.19200
C3111       C  0.24395242  0.62209135  0.86232182    -0.14400
C3112       C  0.26169031  0.62504481  0.86304210    -0.12600
C3113       C  0.21768054  0.59193997  0.86931458     0.00200
C3114       C  0.20266267  0.58590240  0.86907477    -0.32700
C3115       C  0.28964367  0.60458872  0.87229336     0.01500
C3116       C  0.30482633  0.60890062  0.87263535    -0.34300
H3117       H  0.27061193  0.55764837  0.88689134     0.12600
H3118       H  0.23938593  0.55239384  0.88561348     0.12400
H3119       H  0.23659166  0.64007711  0.85540461     0.12300
H3120       H  0.26785079  0.64535333  0.85669663     0.11300
C3121       C  0.37548206  0.72458053  0.77266758     0.17600
C3122       C  0.39085516  0.71966796  0.76399057    -0.11500
C3123       C  0.39120574  0.72026489  0.74626588    -0.12300
C3124       C  0.37617035  0.72567487  0.73715093     0.19200
C3125       C  0.36080564  0.73071283  0.74582202    -0.14400
C3126       C  0.36045456  0.73011240  0.76354808    -0.12600
C3127       C  0.37657818  0.72732809  0.71894589     0.00200
C3128       C  0.37665319  0.73112301  0.70380008    -0.32700
C3129       C  0.37503243  0.72240108  0.79086927     0.01500
C3130       C  0.37478047  0.71802532  0.80598075    -0.34300
H3131       H  0.40252852  0.71517076  0.77092027     0.12600
H3132       H  0.40317113  0.71656126  0.73968439     0.12400
H3133       H  0.34912559  0.73512722  0.73888648     0.12300
H3134       H  0.34848143  0.73374872  0.77012511     0.11300
C3135       C  0.38333052  0.08773464  0.02040615     0.17600
C3136       C  0.36798381  0.08237976  0.01176236    -0.11500
C3137       C  0.36721363  0.08621694  0.99411336    -0.12300
C3138       C  0.38178834  0.09546204  0.98499095     0.19200
C3139       C  0.39723069  0.09992205  0.99359519    -0.14400
C3140       C  0.39799848  0.09609991  0.01122503    -0.12600
C3141       C  0.38078170  0.10221910  0.96701751     0.00200
C3142       C  0.38038194  0.10977983  0.95218915    -0.32700
C3143       C  0.38373309  0.08740149  0.03872140     0.01500
C3144       C  0.38400553  0.09047725  0.05396224    -0.34300
H3145       H  0.35652295  0.07612752  0.01870699     0.12600
H3146       H  0.35518051  0.08276926  0.98765232     0.12400
H3147       H  0.40858254  0.10715046  0.98672855     0.12300
H3148       H  0.40991621  0.10054170  0.01773956     0.11300
C3149       C  0.37935263  0.88146391  0.87793924     0.17600
C3150       C  0.38191464  0.89539335  0.89397208    -0.11500
C3151       C  0.37852879  0.92856013  0.89660561    -0.12300
C3152       C  0.37248356  0.94784820  0.88323212     0.19200
C3153       C  0.36978764  0.93385108  0.86724721    -0.14400
C3154       C  0.37317769  0.90070665  0.86461424    -0.12600
C3155       C  0.37020041  0.98241725  0.88547352     0.00200
C3156       C  0.36984007  0.01181620  0.88594316    -0.32700
C3157       C  0.38230054  0.84712754  0.87542416     0.01500
C3158       C  0.38339292  0.81782200  0.87447986    -0.34300
H3159       H  0.38653527  0.88063499  0.90440741     0.12600
H3160       H  0.38079343  0.93921027  0.90897453     0.12400
H3161       H  0.36524794  0.94863506  0.85678584     0.12300
H3162       H  0.37100612  0.89011286  0.85221706     0.11300
C3163       C  0.37526873  0.44717598  0.87959597     0.17600
C3164       C  0.38916514  0.43159701  0.88724397    -0.11500
C3165       C  0.39238488  0.39861815  0.88395916    -0.12300
C3166       C  0.38178216  0.38119199  0.87292623     0.19200
C3167       C  0.36797097  0.39684647  0.86515987    -0.14400
C3168       C  0.36475188  0.42983470  0.86844522    -0.12600
C3169       C  0.38430296  0.34674827  0.87054840     0.00200
C3170       C  0.38496332  0.31738839  0.87003131    -0.32700
C3171       C  0.37232465  0.48131518  0.88259133     0.01500
C3172       C  0.37131614  0.51054137  0.88392405    -0.34300
H3173       H  0.39746362  0.44491103  0.89576189     0.12600
H3174       H  0.40299996  0.38664100  0.89014772     0.12400
H3175       H  0.35960533  0.38347784  0.85673091     0.12300
H3176       H  0.35407074  0.44176905  0.86234791     0.11300
C3177       C  0.23638597  0.09009791  0.87125601     0.17600
C3178       C  0.24716677  0.06614072  0.87804462    -0.11500
C3179       C  0.26483406  0.07044444  0.87761566    -0.12300
C3180       C  0.27180392  0.09869687  0.87036197     0.19200
C3181       C  0.26102049  0.12268304  0.86359520    -0.14400
C3182       C  0.24334761  0.11837786  0.86402449    -0.12600
C3183       C  0.28997360  0.10342381  0.87012696     0.00200
C3184       C  0.30505436  0.10898897  0.87027162    -0.32700
C3185       C  0.21822688  0.08534682  0.87157634     0.01500
C3186       C  0.20318353  0.07949308  0.87189678    -0.34300
H3187       H  0.24191592  0.04415823  0.88365598     0.12600
H3188       H  0.27304039  0.05180410  0.88294089     0.12400
H3189       H  0.26627146  0.14469041  0.85801270     0.12300
H3190       H  0.23513413  0.13703637  0.85872723     0.11300
C3191       C  0.37832060  0.22306080  0.73432021     0.17600
C3192       C  0.38849078  0.20000500  0.74268166    -0.11500
C3193       C  0.38846413  0.19840244  0.76042215    -0.12300
C3194       C  0.37829814  0.21988317  0.76990392     0.19200
C3195       C  0.36816110  0.24297083  0.76152808    -0.14400
C3196       C  0.36818694  0.24457262  0.74379887    -0.12600
C3197       C  0.37789219  0.21749964  0.78816333     0.00200
C3198       C  0.37731957  0.21352505  0.80333577    -0.32700
C3199       C  0.37833754  0.22504171  0.71606309     0.01500
C3200       C  0.37800981  0.22881161  0.70088584    -0.34300
H3201       H  0.39639909  0.18327771  0.73550656     0.12600
H3202       H  0.39629706  0.18033166  0.76673906     0.12400
H3203       H  0.36018803  0.25960416  0.76868890     0.12300
H3204       H  0.36028719  0.26254075  0.73748190     0.11300
C3205       C  0.62477422  0.58804335  0.48470217     0.17600
C3206       C  0.60953823  0.58502694  0.49387026    -0.11500
C3207       C  0.60959093  0.58787822  0.51157921    -0.12300
C3208       C  0.62487424  0.59381943  0.52023367     0.19200
C3209       C  0.64014518  0.59617113  0.51108179    -0.14400
C3210       C  0.64009334  0.59331616  0.49338916    -0.12600
C3211       C  0.62480179  0.59934258  0.53833286     0.00200
C3212       C  0.62491654  0.60583172  0.55329073    -0.32700
C3213       C  0.62457785  0.58807498  0.46639142     0.01500
C3214       C  0.62450539  0.59119168  0.45115493    -0.34300
H3215       H  0.59758675  0.58120106  0.48731375     0.12600
H3216       H  0.59768169  0.58617899  0.51847509     0.12400
H3217       H  0.65203387  0.60092714  0.51758669     0.12300
H3218       H  0.65193878  0.59594902  0.48646045     0.11300
C3219       C  0.73589387  0.58831746  0.63273112     0.17600
C3220       C  0.74543348  0.59849991  0.61865476    -0.11500
C3221       C  0.76319417  0.59574746  0.61876144    -0.12300
C3222       C  0.77153218  0.58287079  0.63296881     0.19200
C3223       C  0.76198718  0.57241483  0.64699707    -0.14400
C3224       C  0.74421196  0.57517901  0.64689261    -0.12600
C3225       C  0.78982468  0.57982098  0.63302645     0.00200
C3226       C  0.80503798  0.57559827  0.63287234    -0.32700
C3227       C  0.71768776  0.59280059  0.63285136     0.01500
C3228       C  0.70267670  0.59910933  0.63266725    -0.34300
H3229       H  0.73915160  0.60882269  0.60766299     0.12600
H3230       H  0.77041729  0.60375978  0.60780844     0.12400
H3231       H  0.76828445  0.56225198  0.65801883     0.12300
H3232       H  0.73698742  0.56736115  0.65788202     0.11300
C3233       C  0.48721818  0.72885131  0.62452866     0.17600
C3234       C  0.49571084  0.71746040  0.63897426    -0.11500
C3235       C  0.51342886  0.71413813  0.63883033    -0.12300
C3236       C  0.52273193  0.72223658  0.62425231     0.19200
C3237       C  0.51425987  0.73388630  0.60984132    -0.14400
C3238       C  0.49652920  0.73721898  0.60998694    -0.12600
C3239       C  0.54086054  0.71728088  0.62392572     0.00200
C3240       C  0.55586700  0.71113352  0.62386605    -0.32700
C3241       C  0.46897617  0.73203764  0.62464566     0.01500
C3242       C  0.45373599  0.73550582  0.62470117    -0.34300
H3243       H  0.48863668  0.71098234  0.65029094     0.12600
H3244       H  0.51985415  0.70497551  0.65001448     0.12400
H3245       H  0.52132678  0.74008138  0.59847741     0.12300
H3246       H  0.49008177  0.74611453  0.59875792     0.11300
C3247       C  0.62444820  0.08843586  0.48320926     0.17600
C3248       C  0.63586029  0.06977408  0.49285932    -0.11500
C3249       C  0.63638613  0.07339896  0.51052979    -0.12300
C3250       C  0.62551679  0.09570811  0.51861838     0.19200
C3251       C  0.61399715  0.11405825  0.50896026    -0.14400
C3252       C  0.61346319  0.11042472  0.49133868    -0.12600
C3253       C  0.62639325  0.10055584  0.53672767     0.00200
C3254       C  0.62684505  0.10647774  0.55172943    -0.32700
C3255       C  0.62459646  0.08687023  0.46493560     0.01500
C3256       C  0.62447660  0.08962928  0.44969199    -0.34300
H3257       H  0.64451507  0.05287989  0.48672164     0.12600
H3258       H  0.64538521  0.05913765  0.51784561     0.12400
H3259       H  0.60556441  0.13145444  0.51503176     0.12300
H3260       H  0.60467955  0.12517967  0.48401788     0.11300
C3261       C  0.62611816  0.87449482  0.63224923     0.17600
C3262       C  0.63841073  0.89244049  0.64111452    -0.11500
C3263       C  0.64133229  0.92520247  0.63701530    -0.12300
C3264       C  0.63202766  0.94008688  0.62398489     0.19200
C3265       C  0.61975827  0.92214298  0.61508922    -0.14400
C3266       C  0.61683748  0.88937290  0.61918856    -0.12600
C3267       C  0.63413615  0.97436404  0.62068434     0.00200
C3268       C  0.63462117  0.00368103  0.61957514    -0.32700
C3269       C  0.62394684  0.84022820  0.63565012     0.01500
C3270       C  0.62348487  0.81087851  0.63673627    -0.34300
H3271       H  0.64579319  0.88106258  0.65109959     0.12600
H3272       H  0.65072801  0.93898231  0.64408195     0.12400
H3273       H  0.61237269  0.93353839  0.60510926     0.12300
H3274       H  0.60744463  0.87559539  0.61211867     0.11300
C3275       C  0.63119745  0.37493838  0.63163299     0.17600
C3276       C  0.64632190  0.39072308  0.63630627    -0.11500
C3277       C  0.64859856  0.42390588  0.63266464    -0.12300
C3278       C  0.63579266  0.44137026  0.62425406     0.19200
C3279       C  0.62060638  0.42565031  0.61974079    -0.14400
C3280       C  0.61832812  0.39249540  0.62338362    -0.12600
C3281       C  0.63775982  0.47578406  0.62105240     0.00200
C3282       C  0.63793766  0.50513314  0.61978059    -0.32700
C3283       C  0.62938933  0.34030632  0.63419573     0.01500
C3284       C  0.62874466  0.31090197  0.63470589    -0.34300
H3285       H  0.65640481  0.37731314  0.64258549     0.12600
H3286       H  0.66031158  0.43590734  0.63638350     0.12400
H3287       H  0.61054366  0.43902069  0.61340615     0.12300
H3288       H  0.60663446  0.38048713  0.61960636     0.11300
C3289       C  0.73628406  0.09057597  0.63279727     0.17600
C3290       C  0.74560044  0.10213637  0.61885619    -0.11500
C3291       C  0.76340676  0.10121476  0.61906854    -0.12300
C3292       C  0.77197110  0.08883232  0.63325545     0.19200
C3293       C  0.76265949  0.07700570  0.64713041    -0.14400
C3294       C  0.74485366  0.07793056  0.64691881    -0.12600
C3295       C  0.79026143  0.08691645  0.63333062     0.00200
C3296       C  0.80542054  0.08237709  0.63320393    -0.32700
C3297       C  0.71799941  0.09318100  0.63287316     0.01500
C3298       C  0.70285859  0.09810574  0.63274485    -0.34300
H3299       H  0.73910313  0.11207261  0.60789312     0.12600
H3300       H  0.77047634  0.11013829  0.60820480     0.12400
H3301       H  0.76916129  0.06708938  0.65809563     0.12300
H3302       H  0.73778897  0.06903966  0.65779011     0.11300
C3303       C  0.48765834  0.22323653  0.62186699     0.17600
C3304       C  0.49641954  0.22481644  0.63731610    -0.11500
C3305       C  0.51410852  0.22083890  0.63768201    -0.12300
C3306       C  0.52308768  0.21533044  0.62258809     0.19200
C3307       C  0.51431338  0.21358735  0.60716205    -0.14400
C3308       C  0.49663639  0.21756426  0.60679633    -0.12600
C3309       C  0.54126622  0.21117488  0.62286092     0.00200
C3310       C  0.55642442  0.20665147  0.62267875    -0.32700
C3311       C  0.46952333  0.22809435  0.62145402     0.01500
C3312       C  0.45440867  0.23318254  0.62129649    -0.34300
H3313       H  0.48959257  0.22925156  0.64903907     0.12600
H3314       H  0.52076839  0.22212970  0.64968673     0.12400
H3315       H  0.52114048  0.20924028  0.59543017     0.12300
H3316       H  0.48999080  0.21635281  0.59478255     0.11300
C3317       C  0.62503634  0.84430969  0.02074010     0.17600
C3318       C  0.61251783  0.82660547  0.01204020    -0.11500
C3319       C  0.61325261  0.82375684  0.99438297    -0.12300
C3320       C  0.62650642  0.83858270  0.98528128     0.19200
C3321       C  0.63889153  0.85674772  0.99394219    -0.14400
C3322       C  0.63815449  0.85960262  0.01163565    -0.12600
C3323       C  0.62761929  0.83392742  0.96717941     0.00200
C3324       C  0.62800677  0.82766301  0.95221936    -0.32700
C3325       C  0.62495830  0.84484151  0.03902190     0.01500
C3326       C  0.62487422  0.84216308  0.05426503    -0.34300
H3327       H  0.60238015  0.81447334  0.01893285     0.12600
H3328       H  0.60364179  0.80954511  0.98785253     0.12400
H3329       H  0.64923960  0.86822653  0.98706612     0.12300
H3330       H  0.64797378  0.87315644  0.01822923     0.11300
C3331       C  0.77351646  0.83583617  0.86926590     0.17600
C3332       C  0.76554862  0.81428795  0.88057184    -0.11500
C3333       C  0.74777098  0.81230775  0.88111405    -0.12300
C3334       C  0.73787118  0.83191222  0.87038454     0.19200
C3335       C  0.74583243  0.85334989  0.85901406    -0.14400
C3336       C  0.76361684  0.85533016  0.85847183    -0.12600
C3337       C  0.71958872  0.82941287  0.87087969     0.00200
C3338       C  0.70441360  0.82503718  0.87145820    -0.32700
C3339       C  0.79177594  0.83918466  0.86927333     0.01500
C3340       C  0.80686330  0.84469985  0.86955518    -0.34300
H3341       H  0.77305991  0.79925784  0.88904883     0.12600
H3342       H  0.74174553  0.79555839  0.88991505     0.12400
H3343       H  0.73831246  0.86854098  0.85062113     0.12300
H3344       H  0.76964157  0.87223274  0.84975025     0.11300
C3345       C  0.52214312  0.72007745  0.88352498     0.17600
C3346       C  0.51363382  0.70999233  0.86882820    -0.11500
C3347       C  0.49585673  0.70797849  0.86870605    -0.12300
C3348       C  0.48653662  0.71609400  0.88326852     0.19200
C3349       C  0.49504165  0.72635714  0.89793055    -0.14400
C3350       C  0.51281414  0.72837018  0.89805176    -0.12600
C3351       C  0.46831138  0.71283253  0.88333112     0.00200
C3352       C  0.45313449  0.70858397  0.88346163    -0.32700
C3353       C  0.54039771  0.72277381  0.88359766     0.01500
C3354       C  0.55559850  0.72675240  0.88364968    -0.34300
H3355       H  0.52072745  0.70370865  0.85749727     0.12600
H3356       H  0.48939478  0.69993925  0.85731608     0.12400
H3357       H  0.48795306  0.73261275  0.90926897     0.12300
H3358       H  0.51927551  0.73637788  0.90944757     0.11300
C3359       C  0.63367651  0.71373626  0.73540407     0.17600
C3360       C  0.61804297  0.71299379  0.74399893    -0.11500
C3361       C  0.61762174  0.71438452  0.76171982    -0.12300
C3362       C  0.63283885  0.71640686  0.77091684     0.19200
C3363       C  0.64846577  0.71713630  0.76232866    -0.14400
C3364       C  0.64888637  0.71574743  0.74461531    -0.12600
C3365       C  0.63245249  0.71879829  0.78910917     0.00200
C3366       C  0.63250238  0.72280752  0.80424320    -0.32700
C3367       C  0.63412757  0.71131282  0.71719248     0.01500
C3368       C  0.63435979  0.70723701  0.70204739    -0.34300
H3369       H  0.60620752  0.71125008  0.73701028     0.12600
H3370       H  0.60546435  0.71396598  0.76823152     0.12400
H3371       H  0.66030347  0.71885368  0.76931823     0.12300
H3372       H  0.66104780  0.71615213  0.73811419     0.11300
C3373       C  0.62490337  0.34590550  0.01978955     0.17600
C3374       C  0.61164178  0.32956206  0.01146389    -0.11500
C3375       C  0.61192232  0.32600986  0.99382184    -0.12300
C3376       C  0.62547714  0.33874495  0.98432250     0.19200
C3377       C  0.63863645  0.35557097  0.99258797    -0.14400
C3378       C  0.63835802  0.35912363  0.01027858    -0.12600
C3379       C  0.62616219  0.33308456  0.96625682     0.00200
C3380       C  0.62646924  0.32624504  0.95135222    -0.32700
C3381       C  0.62503867  0.34722746  0.03810581     0.01500
C3382       C  0.62472605  0.34492691  0.05339236    -0.34300
H3383       H  0.60122759  0.31903274  0.01864838     0.12600
H3384       H  0.60171438  0.31282382  0.98762001     0.12400
H3385       H  0.64923401  0.36541214  0.98540848     0.12300
H3386       H  0.64875549  0.37162070  0.01654560     0.11300
C3387       C  0.62668307  0.55606404  0.87274740     0.17600
C3388       C  0.62621488  0.54386634  0.88934900    -0.11500
C3389       C  0.62899089  0.51065477  0.89237457    -0.12300
C3390       C  0.63231415  0.48956504  0.87880652     0.19200
C3391       C  0.63275924  0.50174168  0.86219321    -0.14400
C3392       C  0.62998579  0.53498101  0.85916524    -0.12600
C3393       C  0.63452121  0.45520605  0.88177338     0.00200
C3394       C  0.63510117  0.42592468  0.88306653    -0.32700
C3395       C  0.62457477  0.59047708  0.86991648     0.01500
C3396       C  0.62404380  0.61983800  0.86936338    -0.34300
H3397       H  0.62378611  0.56006119  0.89994690     0.12600
H3398       H  0.62850294  0.50142940  0.90524517     0.12400
H3399       H  0.63520363  0.48553779  0.85160417     0.12300
H3400       H  0.63048957  0.54423050  0.84630031     0.11300
C3401       C  0.63628948  0.98870204  0.88125212     0.17600
C3402       C  0.64886970  0.01162453  0.88529411    -0.11500
C3403       C  0.64606433  0.04479792  0.88207872    -0.12300
C3404       C  0.63070293  0.05513459  0.87477201     0.19200
C3405       C  0.61811323  0.03220319  0.87076491    -0.14400
C3406       C  0.62091711  0.99904195  0.87398040    -0.12600
C3407       C  0.62786625  0.08937348  0.87180152     0.00200
C3408       C  0.62680491  0.11866778  0.87072593    -0.32700
C3409       C  0.63908936  0.95445481  0.88415497     0.01500
C3410       C  0.63969893  0.92512233  0.88516236    -0.34300
H3411       H  0.66080695  0.00387784  0.89087600     0.12600
H3412       H  0.65585670  0.06239000  0.88528938     0.12400
H3413       H  0.60617200  0.03993356  0.86518572     0.12300
H3414       H  0.61112451  0.98144862  0.87076541     0.11300
C3415       C  0.77128218  0.34755582  0.87072010     0.17600
C3416       C  0.76179114  0.35172339  0.88562586    -0.11500
C3417       C  0.74402552  0.34902694  0.88527560    -0.12300
C3418       C  0.73562567  0.34224485  0.87000918     0.19200
C3419       C  0.74511851  0.33790315  0.85511025    -0.14400
C3420       C  0.76289583  0.34060671  0.85545949    -0.12600
C3421       C  0.71735119  0.33865425  0.86978430     0.00200
C3422       C  0.70221548  0.33344522  0.86998672    -0.32700
C3423       C  0.78953480  0.35148063  0.87101588     0.01500
C3424       C  0.80468057  0.35653780  0.87133991    -0.34300
H3425       H  0.76811391  0.35719192  0.89749254     0.12600
H3426       H  0.73684571  0.35220587  0.89689823     0.12400
H3427       H  0.73878888  0.33240288  0.84325155     0.12300
H3428       H  0.77008103  0.33744114  0.84383928     0.11300
C3429       C  0.48641911  0.21637731  0.88179465     0.17600
C3430       C  0.49632566  0.18855308  0.88494482    -0.11500
C3431       C  0.51409432  0.19049402  0.88436433    -0.12300
C3432       C  0.52204495  0.22027308  0.88061535     0.19200
C3433       C  0.51213517  0.24805880  0.87730674    -0.14400
C3434       C  0.49434994  0.24611599  0.87788748    -0.12600
C3435       C  0.54034160  0.22258762  0.88064356     0.00200
C3436       C  0.55560286  0.22582764  0.88101697    -0.32700
C3437       C  0.46815004  0.21417472  0.88258774     0.01500
C3438       C  0.45293499  0.21045792  0.88315870    -0.34300
H3439       H  0.49031360  0.16541759  0.88793371     0.12600
H3440       H  0.52162077  0.16888297  0.88697069     0.12400
H3441       H  0.51815472  0.27123459  0.87442177     0.12300
H3442       H  0.48681092  0.26776043  0.87538580     0.11300
C3443       C  0.63342906  0.21156564  0.73432676     0.17600
C3444       C  0.64860692  0.20681872  0.74333965    -0.11500
C3445       C  0.64864894  0.20862335  0.76105781    -0.12300
C3446       C  0.63349456  0.21507801  0.76984271     0.19200
C3447       C  0.61832603  0.21982938  0.76083448    -0.14400
C3448       C  0.61828541  0.21803077  0.74312293    -0.12600
C3449       C  0.63356884  0.21804684  0.78802563     0.00200
C3450       C  0.63352429  0.22273427  0.80311358    -0.32700
C3451       C  0.63333361  0.20887552  0.71611297     0.01500
C3452       C  0.63343013  0.20479756  0.70096201    -0.34300
H3453       H  0.66037863  0.20166466  0.73667591     0.12600
H3454       H  0.66047453  0.20510246  0.76788446     0.12400
H3455       H  0.60655738  0.22502445  0.76749616     0.12300
H3456       H  0.60646378  0.22160647  0.73630137     0.11300
loop_ 
_geom_bond_atom_site_label_1 
_geom_bond_atom_site_label_2 
_geom_bond_distance 
_geom_bond_site_symmetry_2 
_ccdc_geom_bond_type 
Zr1           O2   2.442       .  S
Zr1           O3   2.442       .  S
Zr1           O4   2.447       .  S
Zr1           O7   2.437       .  S
Zr1           O9   2.381       .  S
Zr1          O10   2.388       .  S
Zr1          O11   2.408       .  S
Zr1          O12   2.401       .  S
O2           H58   0.990       .  S
O2           H66   0.991       .  S
O3           C23   1.283       .  A
O4           C25   1.284       .  A
O5          Zr15   2.429       .  S
O5           C24   1.283       .  A
O6          Zr14   2.418       .  S
O6           C25   1.280       .  A
O7           C24   1.283       .  A
O8          Zr16   2.407       .  S
O8           C23   1.277       .  A
O9          Zr14   2.397       .  S
O9          Zr16   2.381       .  S
O10         Zr15   2.393       .  S
O10         Zr16   2.380       .  S
O10          H45   0.965       .  S
O11         Zr14   2.401       .  S
O11         Zr31   2.393       .  S
O11          H48   0.966       .  S
O12         Zr15   2.391       .  S
O12         Zr31   2.387       .  S
Zr13         O38   2.448       .  S
Zr13         O32   2.436       .  S
Zr13         O40   2.439       .  S
Zr13         O28   2.445       .  S
Zr13         O19   2.403       .  S
Zr13         O20   2.402       .  S
Zr13         O21   2.380       .  S
Zr13         O22   2.385       .  S
Zr14         O33   2.436       .  S
Zr14         O26   2.435       .  S
Zr14         O27   2.428       .  S
Zr14         O20   2.395       .  S
Zr14         O21   2.385       .  S
Zr15         O17   2.435       .  S
Zr15         O39   2.436       .  S
Zr15         O41   2.433       .  S
Zr15         O19   2.390       .  S
Zr15         O22   2.390       .  S
Zr16         O42   2.435       .  S
Zr16         O43   2.436       .  S
Zr16         O18   2.437       .  S
Zr16         O19   2.392       .  S
Zr16         O20   2.386       .  S
O17          H54   0.990       .  S
O18          H49   0.990       .  S
O18          H63   0.990       .  S
O20          H46   0.966       .  S
O21         Zr31   2.375       .  S
O22         Zr31   2.377       .  S
O22          H47   0.966       .  S
C23        C3408   1.432       .  S
C24        C3436   1.435       .  S
C25        C3450   1.434       .  S
O26          H62   0.990       .  S
O27          C29   1.283       .  A
O28          C29   1.285       .  A
C29        C3422   1.437       .  S
O30         Zr31   2.439       .  S
O30          H59   0.991       .  S
Zr31         O34   2.437       .  S
Zr31         O35   2.440       .  S
Zr31         O36   2.411       .  S
O32          C37   1.284       .  A
O33          H50   0.990       .  S
O33          H65   0.990       .  S
O34          H51   0.990       .  S
O35          H55   0.991       .  S
O35          H64   0.990       .  S
O36          C37   1.278       .  A
C37        C3394   1.430       .  S
O38          H57   0.990       .  S
O38          H61   0.990       .  S
O39          H53   0.990       .  S
O39          H60   0.990       .  S
O40          C44   1.284       .  A
O41          C44   1.284       .  A
O42          H52   0.990       .  S
O43          H56   0.990       .  S
C44        C3380   1.439       .  S
Zr67         O68   2.441       .  S
Zr67         O69   2.434       .  S
Zr67         O70   2.443       .  S
Zr67         O73   2.433       .  S
Zr67         O75   2.381       .  S
Zr67         O76   2.386       .  S
Zr67         O77   2.404       .  S
Zr67         O78   2.399       .  S
O68         H124   0.990       .  S
O68         H132   0.990       .  S
O69          C89   1.282       .  A
O70          C91   1.283       .  A
O71         Zr81   2.423       .  S
O71          C90   1.282       .  A
O72         Zr80   2.420       .  S
O72          C91   1.280       .  A
O73          C90   1.283       .  A
O74         Zr82   2.408       .  S
O74          C89   1.277       .  A
O75         Zr80   2.396       .  S
O75         Zr82   2.380       .  S
O76         Zr81   2.393       .  S
O76         Zr82   2.375       .  S
O76         H111   0.967       .  S
O77         Zr80   2.399       .  S
O77         Zr97   2.388       .  S
O77         H114   0.966       .  S
O78         Zr81   2.392       .  S
O78         Zr97   2.388       .  S
Zr79        O104   2.448       .  S
Zr79         O98   2.436       .  S
Zr79        O106   2.438       .  S
Zr79         O94   2.440       .  S
Zr79         O85   2.404       .  S
Zr79         O86   2.402       .  S
Zr79         O87   2.382       .  S
Zr79         O88   2.384       .  S
Zr80         O99   2.436       .  S
Zr80         O92   2.435       .  S
Zr80         O93   2.426       .  S
Zr80         O86   2.396       .  S
Zr80         O87   2.386       .  S
Zr81         O83   2.436       .  S
Zr81        O105   2.436       .  S
Zr81        O107   2.433       .  S
Zr81         O85   2.389       .  S
Zr81         O88   2.388       .  S
Zr82        O108   2.436       .  S
Zr82        O109   2.435       .  S
Zr82         O84   2.436       .  S
Zr82         O85   2.393       .  S
Zr82         O86   2.386       .  S
O83         H120   0.990       .  S
O84         H115   0.990       .  S
O84         H129   0.990       .  S
O86         H112   0.965       .  S
O87         Zr97   2.378       .  S
O88         Zr97   2.376       .  S
O88         H113   0.965       .  S
C89        C3396   1.429       .  S
C90        C3354   1.433       .  S
C91        C3366   1.433       .  S
O92         H128   0.990       .  S
O93          C95   1.282       .  A
O94          C95   1.284       .  A
C95        C3338   1.434       .  S
O96         Zr97   2.440       .  S
O96         H125   0.991       .  S
Zr97        O100   2.439       .  S
Zr97        O101   2.438       .  S
Zr97        O102   2.412       .  S
O98         C103   1.284       .  A
O99         H116   0.990       .  S
O99         H131   0.990       .  S
O100        H117   0.990       .  S
O101        H121   0.989       .  S
O101        H130   0.991       .  S
O102        C103   1.279       .  A
C103       C3410   1.430       .  S
O104        H123   0.990       .  S
O104        H127   0.990       .  S
O105        H119   0.990       .  S
O105        H126   0.990       .  S
O106        C110   1.284       .  A
O107        C110   1.283       .  A
O108        H118   0.990       .  S
O109        H122   0.990       .  S
C110       C3324   1.438       .  S
Zr133       O134   2.442       .  S
Zr133       O135   2.442       .  S
Zr133       O136   2.447       .  S
Zr133       O139   2.433       .  S
Zr133       O141   2.381       .  S
Zr133       O142   2.387       .  S
Zr133       O143   2.408       .  S
Zr133       O144   2.402       .  S
O134        H190   0.990       .  S
O134        H198   0.990       .  S
O135        C155   1.283       .  A
O136        C157   1.284       .  A
O137       Zr147   2.425       .  S
O137        C156   1.282       .  A
O138       Zr146   2.426       .  S
O138        C157   1.281       .  A
O139        C156   1.283       .  A
O140       Zr148   2.409       .  S
O140        C155   1.278       .  A
O141       Zr146   2.397       .  S
O141       Zr148   2.382       .  S
O142       Zr147   2.395       .  S
O142       Zr148   2.378       .  S
O142        H177   0.967       .  S
O143       Zr146   2.400       .  S
O143       Zr163   2.393       .  S
O143        H180   0.966       .  S
O144       Zr147   2.391       .  S
O144       Zr163   2.388       .  S
Zr145       O170   2.441       .  S
Zr145       O164   2.434       .  S
Zr145       O172   2.441       .  S
Zr145       O160   2.446       .  S
Zr145       O151   2.403       .  S
Zr145       O152   2.405       .  S
Zr145       O153   2.381       .  S
Zr145       O154   2.382       .  S
Zr146       O165   2.435       .  S
Zr146       O158   2.435       .  S
Zr146       O159   2.423       .  S
Zr146       O152   2.400       .  S
Zr146       O153   2.392       .  S
Zr147       O149   2.435       .  S
Zr147       O171   2.438       .  S
Zr147       O173   2.427       .  S
Zr147       O151   2.390       .  S
Zr147       O154   2.392       .  S
Zr148       O174   2.435       .  S
Zr148       O175   2.435       .  S
Zr148       O150   2.437       .  S
Zr148       O151   2.392       .  S
Zr148       O152   2.385       .  S
O149        H186   0.991       .  S
O150        H181   0.990       .  S
O150        H195   0.990       .  S
O152        H178   0.964       .  S
O153       Zr163   2.378       .  S
O154       Zr163   2.377       .  S
O154        H179   0.965       .  S
C155       C3284   1.433       .  S
C156       C3310   1.433       .  S
C157       C3452   1.436       .  S
O158        H194   0.989       .  S
O159        C161   1.282       .  A
O160        C161   1.284       .  A
C161       C3298   1.435       .  S
O162       Zr163   2.439       .  S
O162        H191   0.991       .  S
Zr163       O166   2.437       .  S
Zr163       O167   2.439       .  S
Zr163       O168   2.412       .  S
O164        C169   1.282       .  A
O165        H182   0.990       .  S
O165        H197   0.990       .  S
O166        H183   0.990       .  S
O167        H187   0.990       .  S
O167        H196   0.990       .  S
O168        C169   1.278       .  A
C169       C3268   1.430       .  S
O170        H189   0.990       .  S
O170        H193   0.991       .  S
O171        H185   0.991       .  S
O171        H192   0.990       .  S
O172        C176   1.285       .  A
O173        C176   1.282       .  A
O174        H184   0.990       .  S
O175        H188   0.990       .  S
C176       C3254   1.439       .  S
Zr199       O200   2.441       .  S
Zr199       O201   2.441       .  S
Zr199       O202   2.443       .  S
Zr199       O205   2.433       .  S
Zr199       O207   2.383       .  S
Zr199       O208   2.383       .  S
Zr199       O209   2.405       .  S
Zr199       O210   2.404       .  S
O200        H256   0.990       .  S
O200        H264   0.991       .  S
O201        C221   1.283       .  A
O202        C223   1.284       .  A
O203       Zr213   2.425       .  S
O203        C222   1.282       .  A
O204       Zr212   2.427       .  S
O204        C223   1.282       .  A
O205        C222   1.283       .  A
O206       Zr214   2.410       .  S
O206        C221   1.278       .  A
O207       Zr212   2.396       .  S
O207       Zr214   2.381       .  S
O208       Zr213   2.394       .  S
O208       Zr214   2.373       .  S
O208        H243   0.966       .  S
O209       Zr212   2.397       .  S
O209       Zr229   2.390       .  S
O209        H246   0.966       .  S
O210       Zr213   2.392       .  S
O210       Zr229   2.391       .  S
Zr211       O236   2.447       .  S
Zr211       O230   2.440       .  S
Zr211       O238   2.442       .  S
Zr211       O226   2.438       .  S
Zr211       O217   2.401       .  S
Zr211       O218   2.406       .  S
Zr211       O219   2.381       .  S
Zr211       O220   2.384       .  S
Zr212       O231   2.436       .  S
Zr212       O224   2.434       .  S
Zr212       O225   2.431       .  S
Zr212       O218   2.396       .  S
Zr212       O219   2.384       .  S
Zr213       O215   2.435       .  S
Zr213       O237   2.438       .  S
Zr213       O239   2.434       .  S
Zr213       O217   2.389       .  S
Zr213       O220   2.387       .  S
Zr214       O240   2.436       .  S
Zr214       O241   2.434       .  S
Zr214       O216   2.436       .  S
Zr214       O217   2.391       .  S
Zr214       O218   2.391       .  S
O215        H252   0.990       .  S
O216        H247   0.991       .  S
O216        H261   0.989       .  S
O218        H244   0.966       .  S
O219       Zr229   2.375       .  S
O220       Zr229   2.378       .  S
O220        H245   0.966       .  S
C221       C3270   1.432       .  S
C222       C3240   1.433       .  S
C223       C3368   1.435       .  S
O224        H260   0.989       .  S
O225        C227   1.284       .  A
O226        C227   1.284       .  A
C227       C3228   1.436       .  S
O228       Zr229   2.439       .  S
O228        H257   0.990       .  S
Zr229       O232   2.438       .  S
Zr229       O233   2.438       .  S
Zr229       O234   2.415       .  S
O230        C235   1.285       .  A
O231        H248   0.990       .  S
O231        H263   0.991       .  S
O232        H249   0.991       .  S
O233        H253   0.989       .  S
O233        H262   0.991       .  S
O234        C235   1.279       .  A
C235       C3282   1.433       .  S
O236        H255   0.991       .  S
O236        H259   0.990       .  S
O237        H251   0.990       .  S
O237        H258   0.990       .  S
O238        C242   1.285       .  A
O239        C242   1.284       .  A
O240        H250   0.991       .  S
O241        H254   0.989       .  S
C242       C3212   1.441       .  S
Zr265       O266   2.441       .  S
Zr265       O267   2.437       .  S
Zr265       O268   2.449       .  S
Zr265       O271   2.430       .  S
Zr265       O273   2.381       .  S
Zr265       O274   2.388       .  S
Zr265       O275   2.405       .  S
Zr265       O276   2.402       .  S
O266        H322   0.990       .  S
O266        H330   0.991       .  S
O267        C287   1.282       .  A
O268        C289   1.284       .  A
O269       Zr279   2.428       .  S
O269        C288   1.283       .  A
O270       Zr278   2.429       .  S
O270        C289   1.282       .  A
O271        C288   1.282       .  A
O272       Zr280   2.407       .  S
O272        C287   1.277       .  A
O273       Zr278   2.396       .  S
O273       Zr280   2.383       .  S
O274       Zr279   2.392       .  S
O274       Zr280   2.378       .  S
O274        H309   0.967       .  S
O275       Zr278   2.398       .  S
O275       Zr295   2.392       .  S
O275        H312   0.967       .  S
O276       Zr279   2.393       .  S
O276       Zr295   2.390       .  S
Zr277       O302   2.447       .  S
Zr277       O296   2.432       .  S
Zr277       O304   2.444       .  S
Zr277       O292   2.440       .  S
Zr277       O283   2.401       .  S
Zr277       O284   2.404       .  S
Zr277       O285   2.384       .  S
Zr277       O286   2.383       .  S
Zr278       O297   2.437       .  S
Zr278       O290   2.435       .  S
Zr278       O291   2.427       .  S
Zr278       O284   2.399       .  S
Zr278       O285   2.390       .  S
Zr279       O281   2.436       .  S
Zr279       O303   2.436       .  S
Zr279       O305   2.435       .  S
Zr279       O283   2.390       .  S
Zr279       O286   2.388       .  S
Zr280       O306   2.435       .  S
Zr280       O307   2.435       .  S
Zr280       O282   2.436       .  S
Zr280       O283   2.393       .  S
Zr280       O284   2.385       .  S
O281        H318   0.991       .  S
O282        H313   0.991       .  S
O282        H327   0.989       .  S
O284        H310   0.964       .  S
O285       Zr295   2.374       .  S
O286       Zr295   2.376       .  S
O286        H311   0.966       .  S
C287       C3170   1.430       .  S
C288       C3438   1.433       .  S
C289       C3198   1.439       .  S
O290        H326   0.990       .  S
O291        C293   1.283       .  A
O292        C293   1.285       .  A
C293       C3184   1.434       .  S
O294       Zr295   2.439       .  S
O294        H323   0.991       .  S
Zr295       O298   2.437       .  S
Zr295       O299   2.439       .  S
Zr295       O300   2.418       .  S
O296        C301   1.283       .  A
O297        H314   0.990       .  S
O297        H329   0.990       .  S
O298        H315   0.990       .  S
O299        H319   0.990       .  S
O299        H328   0.990       .  S
O300        C301   1.280       .  A
C301       C3156   1.431       .  S
O302        H321   0.990       .  S
O302        H325   0.990       .  S
O303        H317   0.990       .  S
O303        H324   0.990       .  S
O304        C308   1.285       .  A
O305        C308   1.284       .  A
O306        H316   0.991       .  S
O307        H320   0.990       .  S
C308       C3142   1.442       .  S
Zr331       O332   2.442       .  S
Zr331       O333   2.445       .  S
Zr331       O334   2.446       .  S
Zr331       O337   2.437       .  S
Zr331       O339   2.382       .  S
Zr331       O340   2.384       .  S
Zr331       O341   2.410       .  S
Zr331       O342   2.402       .  S
O332        H388   0.990       .  S
O332        H396   0.990       .  S
O333        C353   1.284       .  A
O334        C355   1.284       .  A
O335       Zr345   2.418       .  S
O335        C354   1.281       .  A
O336       Zr344   2.423       .  S
O336        C355   1.281       .  A
O337        C354   1.283       .  A
O338       Zr346   2.404       .  S
O338        C353   1.276       .  A
O339       Zr344   2.396       .  S
O339       Zr346   2.382       .  S
O340       Zr345   2.391       .  S
O340       Zr346   2.377       .  S
O340        H375   0.967       .  S
O341       Zr344   2.400       .  S
O341       Zr361   2.389       .  S
O341        H378   0.967       .  S
O342       Zr345   2.393       .  S
O342       Zr361   2.390       .  S
Zr343       O368   2.449       .  S
Zr343       O362   2.435       .  S
Zr343       O370   2.442       .  S
Zr343       O358   2.440       .  S
Zr343       O349   2.399       .  S
Zr343       O350   2.403       .  S
Zr343       O351   2.384       .  S
Zr343       O352   2.383       .  S
Zr344       O363   2.437       .  S
Zr344       O356   2.435       .  S
Zr344       O357   2.425       .  S
Zr344       O350   2.396       .  S
Zr344       O351   2.388       .  S
Zr345       O347   2.435       .  S
Zr345       O369   2.437       .  S
Zr345       O371   2.426       .  S
Zr345       O349   2.387       .  S
Zr345       O352   2.387       .  S
Zr346       O372   2.435       .  S
Zr346       O373   2.434       .  S
Zr346       O348   2.436       .  S
Zr346       O349   2.390       .  S
Zr346       O350   2.387       .  S
O347        H384   0.990       .  S
O348        H379   0.990       .  S
O348        H393   0.989       .  S
O350        H376   0.966       .  S
O351       Zr361   2.376       .  S
O352       Zr361   2.377       .  S
O352        H377   0.965       .  S
C353       C3158   1.432       .  S
C354       C3352   1.432       .  S
C355       C3130   1.434       .  S
O356        H392   0.990       .  S
O357        C359   1.282       .  A
O358        C359   1.284       .  A
C359       C3116   1.434       .  S
O360       Zr361   2.440       .  S
O360        H389   0.991       .  S
Zr361       O364   2.438       .  S
Zr361       O365   2.440       .  S
Zr361       O366   2.411       .  S
O362        C367   1.283       .  A
O363        H380   0.990       .  S
O363        H395   0.990       .  S
O364        H381   0.991       .  S
O365        H385   0.991       .  S
O365        H394   0.989       .  S
O366        C367   1.278       .  A
C367       C3172   1.429       .  S
O368        H387   0.990       .  S
O368        H391   0.990       .  S
O369        H383   0.991       .  S
O369        H390   0.989       .  S
O370        C374   1.285       .  A
O371        C374   1.282       .  A
O372        H382   0.990       .  S
O373        H386   0.989       .  S
C374       C3100   1.437       .  S
Zr397       O398   2.442       .  S
Zr397       O399   2.439       .  S
Zr397       O400   2.446       .  S
Zr397       O403   2.436       .  S
Zr397       O405   2.383       .  S
Zr397       O406   2.384       .  S
Zr397       O407   2.407       .  S
Zr397       O408   2.401       .  S
O398        H454   0.990       .  S
O398        H462   0.991       .  S
O399        C419   1.283       .  A
O400        C421   1.284       .  A
O401       Zr411   2.424       .  S
O401        C420   1.282       .  A
O402       Zr410   2.427       .  S
O402        C421   1.282       .  A
O403        C420   1.284       .  A
O404       Zr412   2.408       .  S
O404        C419   1.277       .  A
O405       Zr410   2.397       .  S
O405       Zr412   2.382       .  S
O406       Zr411   2.393       .  S
O406       Zr412   2.376       .  S
O406        H441   0.965       .  S
O407       Zr410   2.400       .  S
O407       Zr427   2.388       .  S
O407        H444   0.965       .  S
O408       Zr411   2.389       .  S
O408       Zr427   2.387       .  S
Zr409       O434   2.441       .  S
Zr409       O428   2.440       .  S
Zr409       O436   2.438       .  S
Zr409       O424   2.448       .  S
Zr409       O415   2.401       .  S
Zr409       O416   2.406       .  S
Zr409       O417   2.381       .  S
Zr409       O418   2.384       .  S
Zr410       O429   2.435       .  S
Zr410       O422   2.435       .  S
Zr410       O423   2.426       .  S
Zr410       O416   2.400       .  S
Zr410       O417   2.393       .  S
Zr411       O413   2.435       .  S
Zr411       O435   2.439       .  S
Zr411       O437   2.422       .  S
Zr411       O415   2.391       .  S
Zr411       O418   2.391       .  S
Zr412       O438   2.435       .  S
Zr412       O439   2.435       .  S
Zr412       O414   2.437       .  S
Zr412       O415   2.390       .  S
Zr412       O416   2.385       .  S
O413        H450   0.990       .  S
O414        H445   0.990       .  S
O414        H459   0.990       .  S
O416        H442   0.965       .  S
O417       Zr427   2.381       .  S
O418       Zr427   2.377       .  S
O418        H443   0.966       .  S
C419       C3072   1.430       .  S
C420       C3312   1.433       .  S
C421       C3200   1.436       .  S
O422        H458   0.990       .  S
O423        C425   1.282       .  A
O424        C425   1.285       .  A
C425       C3086   1.437       .  S
O426       Zr427   2.439       .  S
O426        H455   0.990       .  S
Zr427       O430   2.437       .  S
Zr427       O431   2.439       .  S
Zr427       O432   2.408       .  S
O428        C433   1.283       .  A
O429        H446   0.990       .  S
O429        H461   0.990       .  S
O430        H447   0.990       .  S
O431        H451   0.990       .  S
O431        H460   0.990       .  S
O432        C433   1.277       .  A
C433       C3058   1.431       .  S
O434        H453   0.990       .  S
O434        H457   0.990       .  S
O435        H449   0.989       .  S
O435        H456   0.990       .  S
O436        C440   1.284       .  A
O437        C440   1.281       .  A
O438        H448   0.990       .  S
O439        H452   0.990       .  S
C440       C3044   1.435       .  S
Zr463       O464   2.443       .  S
Zr463       O465   2.441       .  S
Zr463       O466   2.445       .  S
Zr463       O469   2.440       .  S
Zr463       O471   2.382       .  S
Zr463       O472   2.387       .  S
Zr463       O473   2.409       .  S
Zr463       O474   2.399       .  S
O464        H520   0.991       .  S
O464        H528   0.990       .  S
O465        C485   1.283       .  A
O466        C487   1.283       .  A
O467       Zr477   2.422       .  S
O467        C486   1.281       .  A
O468       Zr476   2.419       .  S
O468        C487   1.280       .  A
O469        C486   1.284       .  A
O470       Zr478   2.405       .  S
O470        C485   1.277       .  A
O471       Zr476   2.396       .  S
O471       Zr478   2.380       .  S
O472       Zr477   2.394       .  S
O472       Zr478   2.379       .  S
O472        H507   0.965       .  S
O473       Zr476   2.401       .  S
O473       Zr493   2.391       .  S
O473        H510   0.966       .  S
O474       Zr477   2.392       .  S
O474       Zr493   2.386       .  S
Zr475       O500   2.441       .  S
Zr475       O494   2.436       .  S
Zr475       O502   2.440       .  S
Zr475       O490   2.443       .  S
Zr475       O481   2.400       .  S
Zr475       O482   2.407       .  S
Zr475       O483   2.382       .  S
Zr475       O484   2.383       .  S
Zr476       O495   2.435       .  S
Zr476       O488   2.435       .  S
Zr476       O489   2.422       .  S
Zr476       O482   2.398       .  S
Zr476       O483   2.392       .  S
Zr477       O479   2.435       .  S
Zr477       O501   2.438       .  S
Zr477       O503   2.432       .  S
Zr477       O481   2.387       .  S
Zr477       O484   2.390       .  S
Zr478       O504   2.435       .  S
Zr478       O505   2.434       .  S
Zr478       O480   2.437       .  S
Zr478       O481   2.389       .  S
Zr478       O482   2.384       .  S
O479        H516   0.990       .  S
O480        H511   0.990       .  S
O480        H525   0.990       .  S
O482        H508   0.965       .  S
O483       Zr493   2.377       .  S
O484       Zr493   2.379       .  S
O484        H509   0.965       .  S
C485       C3060   1.431       .  S
C486       C3242   1.433       .  S
C487       C3128   1.432       .  S
O488        H524   0.990       .  S
O489        C491   1.281       .  A
O490        C491   1.284       .  A
C491       C3032   1.433       .  S
O492       Zr493   2.438       .  S
O492        H521   0.990       .  S
Zr493       O496   2.437       .  S
Zr493       O497   2.439       .  S
Zr493       O498   2.407       .  S
O494        C499   1.283       .  A
O495        H512   0.991       .  S
O495        H527   0.989       .  S
O496        H513   0.990       .  S
O497        H517   0.990       .  S
O497        H526   0.990       .  S
O498        C499   1.278       .  A
C499       C3074   1.429       .  S
O500        H519   0.991       .  S
O500        H523   0.990       .  S
O501        H515   0.989       .  S
O501        H522   0.990       .  S
O502        C506   1.285       .  A
O503        C506   1.283       .  A
O504        H514   0.990       .  S
O505        H518   0.991       .  S
C506       C3016   1.441       .  S
Zr529       O530   2.441       .  S
Zr529       O531   2.437       .  S
Zr529       O532   2.447       .  S
Zr529       O535   2.441       .  S
Zr529       O537   2.382       .  S
Zr529       O538   2.389       .  S
Zr529       O539   2.406   1_565  S
Zr529       O540   2.397   1_565  S
O530        H586   0.989       .  S
O530        H594   0.991       .  S
O531        C551   1.282       .  A
O532        C553   1.284       .  A
O533       Zr543   2.426       .  S
O533        C552   1.282   1_545  A
O534       Zr542   2.426   1_565  S
O534        C553   1.282       .  A
O535        C552   1.284       .  A
O536       Zr544   2.410       .  S
O536        C551   1.278       .  A
O537       Zr542   2.395   1_565  S
O537       Zr544   2.380       .  S
O538       Zr543   2.394   1_565  S
O538       Zr544   2.383       .  S
O538        H573   0.965       .  S
O539       Zr542   2.400       .  S
O539       Zr559   2.390       .  S
O539        H576   0.965       .  S
O540       Zr543   2.388       .  S
O540       Zr559   2.384       .  S
Zr541       O566   2.441       .  S
Zr541       O560   2.431       .  S
Zr541       O568   2.427       .  S
Zr541       O556   2.438       .  S
Zr541       O547   2.402       .  S
Zr541       O548   2.404       .  S
Zr541       O549   2.379       .  S
Zr541       O550   2.383       .  S
Zr542       O561   2.436       .  S
Zr542       O554   2.434   1_545  S
Zr542       O555   2.424       .  S
Zr542       O548   2.399       .  S
Zr542       O549   2.391       .  S
Zr543       O545   2.435       .  S
Zr543       O567   2.438   1_545  S
Zr543       O569   2.427       .  S
Zr543       O547   2.389       .  S
Zr543       O550   2.391       .  S
Zr544       O570   2.435       .  S
Zr544       O571   2.436       .  S
Zr544       O546   2.437       .  S
Zr544       O547   2.392   1_565  S
Zr544       O548   2.387   1_565  S
O545        H582   0.991       .  S
O546        H577   0.990       .  S
O546        H591   0.990       .  S
O548        H574   0.966       .  S
O549       Zr559   2.376       .  S
O550       Zr559   2.378       .  S
O550        H575   0.965       .  S
C551       C2962   1.430       .  S
C552       C2988   1.436       .  S
C553       C3002   1.437       .  S
O554        H590   0.989       .  S
O555        C557   1.282       .  A
O556        C557   1.283       .  A
C557       C3296   1.432       .  S
O558       Zr559   2.438       .  S
O558        H587   0.990       .  S
Zr559       O562   2.436       .  S
Zr559       O563   2.440       .  S
Zr559       O564   2.408       .  S
O560        C565   1.282       .  A
O561        H578   0.990       .  S
O561        H593   0.990       .  S
O562        H579   0.989       .  S
O563        H583   0.990       .  S
O563        H592   0.990       .  S
O564        C565   1.278       .  A
C565       C2976   1.427       .  S
O566        H585   0.990       .  S
O566        H589   0.991       .  S
O567        H581   0.991       .  S
O567        H588   0.990       .  S
O568        C572   1.282       .  A
O569        C572   1.282       .  A
O570        H580   0.991       .  S
O571        H584   0.991       .  S
C572       C2946   1.433       .  S
Zr595       O596   2.441       .  S
Zr595       O597   2.433       .  S
Zr595       O598   2.448       .  S
Zr595       O601   2.437       .  S
Zr595       O603   2.381       .  S
Zr595       O604   2.388       .  S
Zr595       O605   2.405       .  S
Zr595       O606   2.401       .  S
O596        H652   0.990       .  S
O596        H660   0.990       .  S
O597        C617   1.282       .  A
O598        C619   1.284       .  A
O599       Zr609   2.420       .  S
O599        C618   1.281       .  A
O600       Zr608   2.426       .  S
O600        C619   1.282       .  A
O601        C618   1.284       .  A
O602       Zr610   2.408       .  S
O602        C617   1.277       .  A
O603       Zr608   2.396       .  S
O603       Zr610   2.380       .  S
O604       Zr609   2.393       .  S
O604       Zr610   2.375       .  S
O604        H639   0.966       .  S
O605       Zr608   2.399       .  S
O605       Zr625   2.389       .  S
O605        H642   0.966       .  S
O606       Zr609   2.393       .  S
O606       Zr625   2.387       .  S
Zr607       O632   2.448       .  S
Zr607       O626   2.435       .  S
Zr607       O634   2.439       .  S
Zr607       O622   2.441       .  S
Zr607       O613   2.402       .  S
Zr607       O614   2.403       .  S
Zr607       O615   2.383       .  S
Zr607       O616   2.384       .  S
Zr608       O627   2.435       .  S
Zr608       O620   2.435       .  S
Zr608       O621   2.431       .  S
Zr608       O614   2.397       .  S
Zr608       O615   2.386       .  S
Zr609       O611   2.436       .  S
Zr609       O633   2.436       .  S
Zr609       O635   2.432       .  S
Zr609       O613   2.387       .  S
Zr609       O616   2.386       .  S
Zr610       O636   2.436       .  S
Zr610       O637   2.435       .  S
Zr610       O612   2.436       .  S
Zr610       O613   2.393       .  S
Zr610       O614   2.386       .  S
O611        H648   0.991       .  S
O612        H643   0.990       .  S
O612        H657   0.990       .  S
O614        H640   0.965       .  S
O615       Zr625   2.379       .  S
O616       Zr625   2.376       .  S
O616        H641   0.966       .  S
C617       C2974   1.428       .  S
C618       C2918   1.432       .  S
C619       C2932   1.437       .  S
O620        H656   0.990       .  S
O621        C623   1.283       .  A
O622        C623   1.285       .  A
C623       C3226   1.436       .  S
O624       Zr625   2.439       .  S
O624        H653   0.990       .  S
Zr625       O628   2.437       .  S
Zr625       O629   2.439       .  S
Zr625       O630   2.410       .  S
O626        C631   1.284       .  A
O627        H644   0.990       .  S
O627        H659   0.990       .  S
O628        H645   0.990       .  S
O629        H649   0.989       .  S
O629        H658   0.990       .  S
O630        C631   1.279       .  A
C631       C2960   1.429       .  S
O632        H651   0.990       .  S
O632        H655   0.990       .  S
O633        H647   0.990       .  S
O633        H654   0.990       .  S
O634        C638   1.284       .  A
O635        C638   1.283       .  A
O636        H646   0.990       .  S
O637        H650   0.990       .  S
C638       C2904   1.439       .  S
Zr661       O662   2.442       .  S
Zr661       O663   2.434       .  S
Zr661       O664   2.451       .  S
Zr661       O667   2.444       .  S
Zr661       O669   2.383       .  S
Zr661       O670   2.386       .  S
Zr661       O671   2.407       .  S
Zr661       O672   2.400       .  S
O662        H718   0.991       .  S
O662        H726   0.990       .  S
O663        C683   1.282       .  A
O664        C685   1.284       .  A
O665       Zr675   2.420       .  S
O665        C684   1.281       .  A
O666       Zr674   2.426       .  S
O666        C685   1.281       .  A
O667        C684   1.285       .  A
O668       Zr676   2.402       .  S
O668        C683   1.276       .  A
O669       Zr674   2.396       .  S
O669       Zr676   2.382       .  S
O670       Zr675   2.392       .  S
O670       Zr676   2.379       .  S
O670        H705   0.966       .  S
O671       Zr674   2.399       .  S
O671       Zr691   2.388       .  S
O671        H708   0.965       .  S
O672       Zr675   2.389       .  S
O672       Zr691   2.389       .  S
Zr673       O698   2.441       .  S
Zr673       O692   2.435       .  S
Zr673       O700   2.438       .  S
Zr673       O688   2.449       .  S
Zr673       O679   2.398       .  S
Zr673       O680   2.405       .  S
Zr673       O681   2.380       .  S
Zr673       O682   2.385       .  S
Zr674       O693   2.435       .  S
Zr674       O686   2.436       .  S
Zr674       O687   2.423       .  S
Zr674       O680   2.401       .  S
Zr674       O681   2.393       .  S
Zr675       O677   2.435       .  S
Zr675       O699   2.439       .  S
Zr675       O701   2.420       .  S
Zr675       O679   2.390       .  S
Zr675       O682   2.390       .  S
Zr676       O702   2.436       .  S
Zr676       O703   2.436       .  S
Zr676       O678   2.437       .  S
Zr676       O679   2.385       .  S
Zr676       O680   2.387       .  S
O677        H714   0.990       .  S
O678        H709   0.990       .  S
O678        H723   0.990       .  S
O680        H706   0.965       .  S
O681       Zr691   2.379       .  S
O682       Zr691   2.378       .  S
O682        H707   0.966       .  S
C683       C2864   1.426       .  S
C684       C2892   1.436       .  S
C685       C2934   1.438       .  S
O686        H722   0.990       .  S
O687        C689   1.282       .  A
O688        C689   1.285       .  A
C689       C3424   1.437       .  S
O690       Zr691   2.439       .  S
O690        H719   0.989       .  S
Zr691       O694   2.437       .  S
Zr691       O695   2.439       .  S
Zr691       O696   2.412       .  S
O692        C697   1.282       .  A
O693        H710   0.990       .  S
O693        H725   0.990       .  S
O694        H711   0.990       .  S
O695        H715   0.990       .  S
O695        H724   0.990       .  S
O696        C697   1.279       .  A
C697       C2876   1.430       .  S
O698        H717   0.991       .  S
O698        H721   0.990       .  S
O699        H713   0.990       .  S
O699        H720   0.990       .  S
O700        C704   1.284       .  A
O701        C704   1.281       .  A
O702        H712   0.990       .  S
O703        H716   0.990       .  S
C704       C2848   1.434       .  S
Zr727       O728   2.442       .  S
Zr727       O729   2.436   1_565  S
Zr727       O730   2.454       .  S
Zr727       O733   2.437       .  S
Zr727       O735   2.381       .  S
Zr727       O736   2.388       .  S
Zr727       O737   2.405       .  S
Zr727       O738   2.402       .  S
O728        H784   0.991       .  S
O728        H792   0.990       .  S
O729        C749   1.282       .  A
O730        C751   1.285       .  A
O731       Zr741   2.428       .  S
O731        C750   1.282       .  A
O732       Zr740   2.419       .  S
O732        C751   1.280       .  A
O733        C750   1.284       .  A
O734       Zr742   2.406   1_545  S
O734        C749   1.277       .  A
O735       Zr740   2.398       .  S
O735       Zr742   2.381       .  S
O736       Zr741   2.393       .  S
O736       Zr742   2.379       .  S
O736        H771   0.966       .  S
O737       Zr740   2.399       .  S
O737       Zr757   2.389       .  S
O737        H774   0.964       .  S
O738       Zr741   2.392       .  S
O738       Zr757   2.387       .  S
Zr739       O764   2.441       .  S
Zr739       O758   2.432       .  S
Zr739       O766   2.436       .  S
Zr739       O754   2.447       .  S
Zr739       O745   2.401       .  S
Zr739       O746   2.404       .  S
Zr739       O747   2.380       .  S
Zr739       O748   2.386       .  S
Zr740       O759   2.435       .  S
Zr740       O752   2.435       .  S
Zr740       O753   2.424       .  S
Zr740       O746   2.400       .  S
Zr740       O747   2.389       .  S
Zr741       O743   2.435       .  S
Zr741       O765   2.438       .  S
Zr741       O767   2.432       .  S
Zr741       O745   2.391       .  S
Zr741       O748   2.390       .  S
Zr742       O768   2.436       .  S
Zr742       O769   2.436       .  S
Zr742       O744   2.436       .  S
Zr742       O745   2.391       .  S
Zr742       O746   2.386       .  S
O743        H780   0.990       .  S
O744        H775   0.990   1_565  S
O744        H789   0.991       .  S
O746        H772   0.965       .  S
O747       Zr757   2.379       .  S
O748       Zr757   2.378       .  S
O748        H773   0.966       .  S
C749       C2878   1.428       .  S
C750       C2834   1.435       .  S
C751       C3004   1.437       .  S
O752        H788   0.989       .  S
O753        C755   1.281       .  A
O754        C755   1.284       .  A
C755       C3340   1.435       .  S
O756       Zr757   2.439       .  S
O756        H785   0.990       .  S
Zr757       O760   2.437       .  S
Zr757       O761   2.439       .  S
Zr757       O762   2.409       .  S
O758        C763   1.282       .  A
O759        H776   0.990       .  S
O759        H791   0.990       .  S
O760        H777   0.990       .  S
O761        H781   0.990       .  S
O761        H790   0.990       .  S
O762        C763   1.278       .  A
C763       C2862   1.427       .  S
O764        H783   0.990       .  S
O764        H787   0.991       .  S
O765        H779   0.990       .  S
O765        H786   0.990       .  S
O766        C770   1.284       .  A
O767        C770   1.283       .  A
O768        H778   0.991   1_565  S
O769        H782   0.990       .  S
C770       C2820   1.439       .  S
Zr793       O794   2.441       .  S
Zr793       O795   2.432       .  S
Zr793       O796   2.447       .  S
Zr793       O799   2.440       .  S
Zr793       O801   2.383       .  S
Zr793       O802   2.387       .  S
Zr793       O803   2.406   1_565  S
Zr793       O804   2.399   1_565  S
O794        H850   0.991       .  S
O794        H858   0.990       .  S
O795        C815   1.281       .  A
O796        C817   1.284       .  A
O797       Zr807   2.422       .  S
O797        C816   1.281   1_545  A
O798       Zr806   2.424   1_565  S
O798        C817   1.281       .  A
O799        C816   1.284       .  A
O800       Zr808   2.409       .  S
O800        C815   1.277       .  A
O801       Zr806   2.395   1_565  S
O801       Zr808   2.382       .  S
O802       Zr807   2.396   1_565  S
O802       Zr808   2.379       .  S
O802        H837   0.965       .  S
O803       Zr806   2.402       .  S
O803       Zr823   2.390       .  S
O803        H840   0.965       .  S
O804       Zr807   2.391       .  S
O804       Zr823   2.388       .  S
Zr805       O830   2.441       .  S
Zr805       O824   2.431       .  S
Zr805       O832   2.433       .  S
Zr805       O820   2.438       .  S
Zr805       O811   2.400       .  S
Zr805       O812   2.405       .  S
Zr805       O813   2.379       .  S
Zr805       O814   2.382       .  S
Zr806       O825   2.436       .  S
Zr806       O818   2.434   1_545  S
Zr806       O819   2.426       .  S
Zr806       O812   2.398       .  S
Zr806       O813   2.390       .  S
Zr807       O809   2.435       .  S
Zr807       O831   2.438   1_545  S
Zr807       O833   2.430       .  S
Zr807       O811   2.389       .  S
Zr807       O814   2.389       .  S
Zr808       O834   2.435       .  S
Zr808       O835   2.435       .  S
Zr808       O810   2.438       .  S
Zr808       O811   2.391   1_565  S
Zr808       O812   2.389   1_565  S
O809        H846   0.989       .  S
O810        H841   0.991       .  S
O810        H855   0.989       .  S
O812        H838   0.965       .  S
O813       Zr823   2.376       .  S
O814       Zr823   2.377       .  S
O814        H839   0.967       .  S
C815       C2778   1.428       .  S
C816       C2836   1.435       .  S
C817       C2806   1.436       .  S
O818        H854   0.990       .  S
O819        C821   1.282       .  A
O820        C821   1.283       .  A
C821       C3186   1.434       .  S
O822       Zr823   2.439       .  S
O822        H851   0.991       .  S
Zr823       O826   2.437       .  S
Zr823       O827   2.440       .  S
Zr823       O828   2.410       .  S
O824        C829   1.282       .  A
O825        H842   0.990       .  S
O825        H857   0.991       .  S
O826        H843   0.990       .  S
O827        H847   0.990       .  S
O827        H856   0.990       .  S
O828        C829   1.278       .  A
C829       C2792   1.428       .  S
O830        H849   0.990       .  S
O830        H853   0.991       .  S
O831        H845   0.989       .  S
O831        H852   0.991       .  S
O832        C836   1.283       .  A
O833        C836   1.283       .  A
O834        H844   0.990       .  S
O835        H848   0.990       .  S
C836       C2764   1.437       .  S
Zr859       O860   2.441       .  S
Zr859       O861   2.436       .  S
Zr859       O862   2.450       .  S
Zr859       O865   2.437       .  S
Zr859       O867   2.383       .  S
Zr859       O868   2.387       .  S
Zr859       O869   2.405       .  S
Zr859       O870   2.400       .  S
O860        H916   0.990       .  S
O860        H924   0.991       .  S
O861        C881   1.282       .  A
O862        C883   1.285       .  A
O863       Zr873   2.431       .  S
O863        C882   1.283       .  A
O864       Zr872   2.425       .  S
O864        C883   1.281       .  A
O865        C882   1.284       .  A
O866       Zr874   2.406       .  S
O866        C881   1.277       .  A
O867       Zr872   2.396       .  S
O867       Zr874   2.380       .  S
O868       Zr873   2.395       .  S
O868       Zr874   2.380       .  S
O868        H903   0.966       .  S
O869       Zr872   2.399       .  S
O869       Zr889   2.388       .  S
O869        H906   0.964       .  S
O870       Zr873   2.391       .  S
O870       Zr889   2.388       .  S
Zr871       O896   2.447       .  S
Zr871       O890   2.431       .  S
Zr871       O898   2.438       .  S
Zr871       O886   2.435       .  S
Zr871       O877   2.399       .  S
Zr871       O878   2.405       .  S
Zr871       O879   2.381       .  S
Zr871       O880   2.382       .  S
Zr872       O891   2.435       .  S
Zr872       O884   2.435       .  S
Zr872       O885   2.430       .  S
Zr872       O878   2.396       .  S
Zr872       O879   2.388       .  S
Zr873       O875   2.436       .  S
Zr873       O897   2.437       .  S
Zr873       O899   2.432       .  S
Zr873       O877   2.390       .  S
Zr873       O880   2.387       .  S
Zr874       O900   2.434       .  S
Zr874       O901   2.436       .  S
Zr874       O876   2.438       .  S
Zr874       O877   2.392       .  S
Zr874       O878   2.386       .  S
O875        H912   0.990       .  S
O876        H907   0.991       .  S
O876        H921   0.990       .  S
O878        H904   0.967       .  S
O879       Zr889   2.375       .  S
O880       Zr889   2.375       .  S
O880        H905   0.966       .  S
C881       C2794   1.429       .  S
C882       C2890   1.437       .  S
C883       C2750   1.438       .  S
O884        H920   0.989       .  S
O885        C887   1.283       .  A
O886        C887   1.283       .  A
C887       C3114   1.433       .  S
O888       Zr889   2.438       .  S
O888        H917   0.990       .  S
Zr889       O892   2.438       .  S
Zr889       O893   2.438       .  S
Zr889       O894   2.414       .  S
O890        C895   1.283       .  A
O891        H908   0.990       .  S
O891        H923   0.990       .  S
O892        H909   0.989       .  S
O893        H913   0.989       .  S
O893        H922   0.991       .  S
O894        C895   1.279       .  A
C895       C2780   1.428       .  S
O896        H915   0.990       .  S
O896        H919   0.990       .  S
O897        H911   0.991       .  S
O897        H918   0.989       .  S
O898        C902   1.284       .  A
O899        C902   1.283       .  A
O900        H910   0.990       .  S
O901        H914   0.990       .  S
C902       C2736   1.438       .  S
Zr925       O926   2.442       .  S
Zr925       O927   2.443       .  S
Zr925       O928   2.448       .  S
Zr925       O931   2.438       .  S
Zr925       O933   2.382       .  S
Zr925       O934   2.386       .  S
Zr925       O935   2.409       .  S
Zr925       O936   2.402       .  S
O926        H982   0.990       .  S
O926        H990   0.990       .  S
O927        C947   1.283       .  A
O928        C949   1.284       .  A
O929       Zr939   2.418       .  S
O929        C948   1.280       .  A
O930       Zr938   2.426       .  S
O930        C949   1.282       .  A
O931        C948   1.284       .  A
O932       Zr940   2.405       .  S
O932        C947   1.276       .  A
O933       Zr938   2.398       .  S
O933       Zr940   2.381       .  S
O934       Zr939   2.394       .  S
O934       Zr940   2.378       .  S
O934        H969   0.965       .  S
O935       Zr938   2.402       .  S
O935       Zr955   2.393       .  S
O935        H972   0.966       .  S
O936       Zr939   2.393       .  S
O936       Zr955   2.387       .  S
Zr937       O962   2.448       .  S
Zr937       O956   2.431       .  S
Zr937       O964   2.439       .  S
Zr937       O952   2.440       .  S
Zr937       O943   2.400       .  S
Zr937       O944   2.402       .  S
Zr937       O945   2.382       .  S
Zr937       O946   2.385       .  S
Zr938       O957   2.436       .  S
Zr938       O950   2.435       .  S
Zr938       O951   2.430       .  S
Zr938       O944   2.395       .  S
Zr938       O945   2.387       .  S
Zr939       O941   2.436       .  S
Zr939       O963   2.437       .  S
Zr939       O965   2.427       .  S
Zr939       O943   2.388       .  S
Zr939       O946   2.389       .  S
Zr940       O966   2.436       .  S
Zr940       O967   2.434       .  S
Zr940       O942   2.436       .  S
Zr940       O943   2.392       .  S
Zr940       O944   2.388       .  S
O941        H978   0.991       .  S
O942        H973   0.991       .  S
O942        H987   0.990       .  S
O944        H970   0.965       .  S
O945       Zr955   2.376       .  S
O946       Zr955   2.377       .  S
O946        H971   0.967       .  S
C947       C2708   1.432       .  S
C948       C2920   1.432       .  S
C949       C2752   1.438       .  S
O950        H986   0.989       .  S
O951        C953   1.283       .  A
O952        C953   1.284       .  A
C953       C3088   1.437       .  S
O954       Zr955   2.439       .  S
O954        H983   0.991       .  S
Zr955       O958   2.437       .  S
Zr955       O959   2.440       .  S
Zr955       O960   2.412       .  S
O956        C961   1.282       .  A
O957        H974   0.990       .  S
O957        H989   0.990       .  S
O958        H975   0.990       .  S
O959        H979   0.990       .  S
O959        H988   0.990       .  S
O960        C961   1.279       .  A
C961       C2724   1.427       .  S
O962        H981   0.990       .  S
O962        H985   0.990       .  S
O963        H977   0.990       .  S
O963        H984   0.990       .  S
O964        C968   1.284       .  A
O965        C968   1.282       .  A
O966        H976   0.991       .  S
O967        H980   0.990       .  S
C968       C2694   1.436       .  S
Zr991       O992   2.442       .  S
Zr991       O993   2.438   1_565  S
Zr991       O994   2.450       .  S
Zr991       O997   2.439       .  S
Zr991       O999   2.381       .  S
Zr991      O1000   2.387       .  S
Zr991      O1001   2.407       .  S
Zr991      O1002   2.403       .  S
O992       H1048   0.990       .  S
O992       H1056   0.991       .  S
O993       C1013   1.282       .  A
O994       C1015   1.284       .  A
O995      Zr1005   2.426       .  S
O995       C1014   1.282       .  A
O996      Zr1004   2.427       .  S
O996       C1015   1.281       .  A
O997       C1014   1.284       .  A
O998      Zr1006   2.402   1_545  S
O998       C1013   1.277       .  A
O999      Zr1004   2.394       .  S
O999      Zr1006   2.383       .  S
O1000     Zr1005   2.390       .  S
O1000     Zr1006   2.377       .  S
O1000      H1035   0.966       .  S
O1001     Zr1004   2.398       .  S
O1001     Zr1021   2.390       .  S
O1001      H1038   0.966       .  S
O1002     Zr1005   2.393       .  S
O1002     Zr1021   2.389       .  S
Zr1003     O1028   2.449       .  S
Zr1003     O1022   2.441       .  S
Zr1003     O1030   2.443       .  S
Zr1003     O1018   2.448       .  S
Zr1003     O1009   2.402       .  S
Zr1003     O1010   2.404       .  S
Zr1003     O1011   2.384       .  S
Zr1003     O1012   2.385       .  S
Zr1004     O1023   2.436       .  S
Zr1004     O1016   2.436       .  S
Zr1004     O1017   2.421       .  S
Zr1004     O1010   2.398       .  S
Zr1004     O1011   2.390       .  S
Zr1005     O1007   2.435       .  S
Zr1005     O1029   2.436       .  S
Zr1005     O1031   2.432       .  S
Zr1005     O1009   2.388       .  S
Zr1005     O1012   2.389       .  S
Zr1006     O1032   2.435       .  S
Zr1006     O1033   2.435       .  S
Zr1006     O1008   2.436       .  S
Zr1006     O1009   2.390       .  S
Zr1006     O1010   2.385       .  S
O1007      H1044   0.991       .  S
O1008      H1039   0.990   1_565  S
O1008      H1053   0.990       .  S
O1010      H1036   0.965       .  S
O1011     Zr1021   2.377       .  S
O1012     Zr1021   2.375       .  S
O1012      H1037   0.967       .  S
C1013      C2722   1.428       .  S
C1014      C2990   1.437       .  S
C1015      C2808   1.438       .  S
O1016      H1052   0.991       .  S
O1017      C1019   1.282       .  A
O1018      C1019   1.286       .  A
C1019      C3030   1.434       .  S
O1020     Zr1021   2.438       .  S
O1020      H1049   0.990       .  S
Zr1021     O1024   2.438       .  S
Zr1021     O1025   2.438       .  S
Zr1021     O1026   2.417       .  S
O1022      C1027   1.285       .  A
O1023      H1040   0.990       .  S
O1023      H1055   0.990       .  S
O1024      H1041   0.990       .  S
O1025      H1045   0.990       .  S
O1025      H1054   0.990       .  S
O1026      C1027   1.280       .  A
C1027      C2710   1.434       .  S
O1028      H1047   0.992       .  S
O1028      H1051   0.989       .  S
O1029      H1043   0.990       .  S
O1029      H1050   0.990       .  S
O1030      C1034   1.285       .  A
O1031      C1034   1.283       .  A
O1032      H1042   0.990   1_565  S
O1033      H1046   0.990       .  S
C1034      C2680   1.441       .  S
Zr1057     O1058   2.441       .  S
Zr1057     O1059   2.442       .  S
Zr1057     O1060   2.453       .  S
Zr1057     O1063   2.442       .  S
Zr1057     O1065   2.384       .  S
Zr1057     O1066   2.389       .  S
Zr1057     O1067   2.410       .  S
Zr1057     O1068   2.401       .  S
O1058      H1114   0.990       .  S
O1058      H1122   0.990       .  S
O1059      C1079   1.283       .  A
O1060      C1081   1.285       .  A
O1061     Zr1071   2.423       .  S
O1061      C1080   1.281       .  A
O1062     Zr1070   2.426       .  S
O1062      C1081   1.281       .  A
O1063      C1080   1.284       .  A
O1064     Zr1072   2.404       .  S
O1064      C1079   1.277       .  A
O1065     Zr1070   2.396       .  S
O1065     Zr1072   2.381       .  S
O1066     Zr1071   2.392       .  S
O1066     Zr1072   2.383       .  S
O1066      H1101   0.965       .  S
O1067     Zr1070   2.401       .  S
O1067     Zr1087   2.390       .  S
O1067      H1104   0.965       .  S
O1068     Zr1071   2.389       .  S
O1068     Zr1087   2.388       .  S
Zr1069     O1094   2.448       .  S
Zr1069     O1088   2.437       .  S
Zr1069     O1096   2.439       .  S
Zr1069     O1084   2.440       .  S
Zr1069     O1075   2.403       .  S
Zr1069     O1076   2.402       .  S
Zr1069     O1077   2.381       .  S
Zr1069     O1078   2.384       .  S
Zr1070     O1089   2.436       .  S
Zr1070     O1082   2.436       .  S
Zr1070     O1083   2.430       .  S
Zr1070     O1076   2.393       .  S
Zr1070     O1077   2.388       .  S
Zr1071     O1073   2.436       .  S
Zr1071     O1095   2.435       .  S
Zr1071     O1097   2.428       .  S
Zr1071     O1075   2.392       .  S
Zr1071     O1078   2.386       .  S
Zr1072     O1098   2.436       .  S
Zr1072     O1099   2.437       .  S
Zr1072     O1074   2.438       .  S
Zr1072     O1075   2.394       .  S
Zr1072     O1076   2.388       .  S
O1073      H1110   0.991       .  S
O1074      H1105   0.990       .  S
O1074      H1119   0.990       .  S
O1076      H1102   0.966       .  S
O1077     Zr1087   2.374       .  S
O1078     Zr1087   2.377       .  S
O1078      H1103   0.966       .  S
C1079      C2610   1.430   1_545  S
C1080      C2638   1.437       .  S
C1081      C3144   1.439       .  S
O1082      H1118   0.990       .  S
O1083      C1085   1.283       .  A
O1084      C1085   1.284       .  A
C1085      C2652   1.437       .  S
O1086     Zr1087   2.440       .  S
O1086      H1115   0.990       .  S
Zr1087     O1090   2.437       .  S
Zr1087     O1091   2.439       .  S
Zr1087     O1092   2.415       .  S
O1088      C1093   1.284       .  A
O1089      H1106   0.991       .  S
O1089      H1121   0.990       .  S
O1090      H1107   0.990       .  S
O1091      H1111   0.990       .  S
O1091      H1120   0.990       .  S
O1092      C1093   1.280       .  A
C1093      C2624   1.432       .  S
O1094      H1113   0.990       .  S
O1094      H1117   0.991       .  S
O1095      H1109   0.989       .  S
O1095      H1116   0.991       .  S
O1096      C1100   1.284       .  A
O1097      C1100   1.282       .  A
O1098      H1108   0.991       .  S
O1099      H1112   0.990       .  S
C1100      C2666   1.437       .  S
Zr1123     O1124   2.442       .  S
Zr1123     O1125   2.444       .  S
Zr1123     O1126   2.449       .  S
Zr1123     O1129   2.442       .  S
Zr1123     O1131   2.383       .  S
Zr1123     O1132   2.386       .  S
Zr1123     O1133   2.411       .  S
Zr1123     O1134   2.404       .  S
O1124      H1180   0.991       .  S
O1124      H1188   0.990       .  S
O1125      C1145   1.283       .  A
O1126      C1147   1.284       .  A
O1127     Zr1137   2.428       .  S
O1127      C1146   1.282       .  A
O1128     Zr1136   2.427       .  S
O1128      C1147   1.281       .  A
O1129      C1146   1.284       .  A
O1130     Zr1138   2.406       .  S
O1130      C1145   1.277       .  A
O1131     Zr1136   2.396       .  S
O1131     Zr1138   2.383       .  S
O1132     Zr1137   2.395       .  S
O1132     Zr1138   2.379       .  S
O1132      H1167   0.965       .  S
O1133     Zr1136   2.400       .  S
O1133     Zr1153   2.393       .  S
O1133      H1170   0.966       .  S
O1134     Zr1137   2.393       .  S
O1134     Zr1153   2.391       .  S
Zr1135     O1160   2.448       .  S
Zr1135     O1154   2.434       .  S
Zr1135     O1162   2.436       .  S
Zr1135     O1150   2.433       .  S
Zr1135     O1141   2.398       .  S
Zr1135     O1142   2.403       .  S
Zr1135     O1143   2.382       .  S
Zr1135     O1144   2.383       .  S
Zr1136     O1155   2.437       .  S
Zr1136     O1148   2.435       .  S
Zr1136     O1149   2.426       .  S
Zr1136     O1142   2.396       .  S
Zr1136     O1143   2.389       .  S
Zr1137     O1139   2.435       .  S
Zr1137     O1161   2.438       .  S
Zr1137     O1163   2.435       .  S
Zr1137     O1141   2.389       .  S
Zr1137     O1144   2.387       .  S
Zr1138     O1164   2.435       .  S
Zr1138     O1165   2.435       .  S
Zr1138     O1140   2.437       .  S
Zr1138     O1141   2.388       .  S
Zr1138     O1142   2.389       .  S
O1139      H1176   0.991       .  S
O1140      H1171   0.990       .  S
O1140      H1185   0.990       .  S
O1142      H1168   0.966       .  S
O1143     Zr1153   2.373       .  S
O1144     Zr1153   2.375       .  S
O1144      H1169   0.966       .  S
C1145      C2626   1.433       .  S
C1146      C2570   1.438       .  S
C1147      C3102   1.438       .  S
O1148      H1184   0.990       .  S
O1149      C1151   1.282       .  A
O1150      C1151   1.283       .  A
C1151      C2582   1.431       .  S
O1152     Zr1153   2.439       .  S
O1152      H1181   0.990       .  S
Zr1153     O1156   2.437       .  S
Zr1153     O1157   2.438       .  S
Zr1153     O1158   2.418       .  S
O1154      C1159   1.283       .  A
O1155      H1172   0.991       .  S
O1155      H1187   0.990       .  S
O1156      H1173   0.990       .  S
O1157      H1177   0.990       .  S
O1157      H1186   0.990       .  S
O1158      C1159   1.280       .  A
C1159      C2612   1.432       .  S
O1160      H1179   0.990       .  S
O1160      H1183   0.990       .  S
O1161      H1175   0.990       .  S
O1161      H1182   0.990       .  S
O1162      C1166   1.284       .  A
O1163      C1166   1.284       .  A
O1164      H1174   0.989       .  S
O1165      H1178   0.990       .  S
C1166      C2598   1.439       .  S
Zr1189     O1190   2.442       .  S
Zr1189     O1191   2.444       .  S
Zr1189     O1192   2.450       .  S
Zr1189     O1195   2.442       .  S
Zr1189     O1197   2.381       .  S
Zr1189     O1198   2.386       .  S
Zr1189     O1199   2.411       .  S
Zr1189     O1200   2.403       .  S
O1190      H1246   0.991       .  S
O1190      H1254   0.990       .  S
O1191      C1211   1.283       .  A
O1192      C1213   1.284       .  A
O1193     Zr1203   2.423       .  S
O1193      C1212   1.282       .  A
O1194     Zr1202   2.425       .  S
O1194      C1213   1.281       .  A
O1195      C1212   1.284       .  A
O1196     Zr1204   2.402       .  S
O1196      C1211   1.276       .  A
O1197     Zr1202   2.396       .  S
O1197     Zr1204   2.384       .  S
O1198     Zr1203   2.393       .  S
O1198     Zr1204   2.380       .  S
O1198      H1233   0.965       .  S
O1199     Zr1202   2.400       .  S
O1199     Zr1219   2.393       .  S
O1199      H1236   0.965       .  S
O1200     Zr1203   2.390       .  S
O1200     Zr1219   2.389       .  S
Zr1201     O1226   2.448       .  S
Zr1201     O1220   2.433       .  S
Zr1201     O1228   2.440       .  S
Zr1201     O1216   2.434       .  S
Zr1201     O1207   2.400       .  S
Zr1201     O1208   2.403       .  S
Zr1201     O1209   2.381       .  S
Zr1201     O1210   2.383       .  S
Zr1202     O1221   2.437       .  S
Zr1202     O1214   2.435       .  S
Zr1202     O1215   2.426       .  S
Zr1202     O1208   2.396       .  S
Zr1202     O1209   2.388       .  S
Zr1203     O1205   2.435       .  S
Zr1203     O1227   2.435       .  S
Zr1203     O1229   2.429       .  S
Zr1203     O1207   2.390       .  S
Zr1203     O1210   2.387       .  S
Zr1204     O1230   2.435       .  S
Zr1204     O1231   2.435       .  S
Zr1204     O1206   2.437       .  S
Zr1204     O1207   2.389       .  S
Zr1204     O1208   2.388       .  S
O1205      H1242   0.990       .  S
O1206      H1237   0.990       .  S
O1206      H1251   0.990       .  S
O1208      H1234   0.965       .  S
O1209     Zr1219   2.372       .  S
O1210     Zr1219   2.375       .  S
O1210      H1235   0.967       .  S
C1211      C2512   1.431       .  S
C1212      C2540   1.436       .  S
C1213      C3046   1.436       .  S
O1214      H1250   0.990       .  S
O1215      C1217   1.283       .  A
O1216      C1217   1.283       .  A
C1217      C2554   1.432       .  S
O1218     Zr1219   2.438       .  S
O1218      H1247   0.990       .  S
Zr1219     O1222   2.437       .  S
Zr1219     O1223   2.440       .  S
Zr1219     O1224   2.418       .  S
O1220      C1225   1.283       .  A
O1221      H1238   0.990       .  S
O1221      H1253   0.991       .  S
O1222      H1239   0.990       .  S
O1223      H1243   0.991       .  S
O1223      H1252   0.990       .  S
O1224      C1225   1.280       .  A
C1225      C2528   1.431       .  S
O1226      H1245   0.989       .  S
O1226      H1249   0.991       .  S
O1227      H1241   0.989       .  S
O1227      H1248   0.990       .  S
O1228      C1232   1.285       .  A
O1229      C1232   1.283       .  A
O1230      H1240   0.990       .  S
O1231      H1244   0.990       .  S
C1232      C2668   1.437       .  S
Zr1255     O1256   2.443       .  S
Zr1255     O1257   2.441       .  S
Zr1255     O1258   2.452       .  S
Zr1255     O1261   2.444       .  S
Zr1255     O1263   2.384       .  S
Zr1255     O1264   2.389       .  S
Zr1255     O1265   2.411       .  S
Zr1255     O1266   2.401       .  S
O1256      H1312   0.991       .  S
O1256      H1320   0.991       .  S
O1257      C1277   1.283       .  A
O1258      C1279   1.284       .  A
O1259     Zr1269   2.427       .  S
O1259      C1278   1.283       .  A
O1260     Zr1268   2.429       .  S
O1260      C1279   1.281       .  A
O1261      C1278   1.285       .  A
O1262     Zr1270   2.404       .  S
O1262      C1277   1.276       .  A
O1263     Zr1268   2.397       .  S
O1263     Zr1270   2.383       .  S
O1264     Zr1269   2.395       .  S
O1264     Zr1270   2.382       .  S
O1264      H1299   0.966       .  S
O1265     Zr1268   2.402       .  S
O1265     Zr1285   2.392       .  S
O1265      H1302   0.964       .  S
O1266     Zr1269   2.391       .  S
O1266     Zr1285   2.387       .  S
Zr1267     O1292   2.447       .  S
Zr1267     O1286   2.433       .  S
Zr1267     O1294   2.439       .  S
Zr1267     O1282   2.439       .  S
Zr1267     O1273   2.400       .  S
Zr1267     O1274   2.402       .  S
Zr1267     O1275   2.381       .  S
Zr1267     O1276   2.383       .  S
Zr1268     O1287   2.436       .  S
Zr1268     O1280   2.436       .  S
Zr1268     O1281   2.428       .  S
Zr1268     O1274   2.395       .  S
Zr1268     O1275   2.388       .  S
Zr1269     O1271   2.436       .  S
Zr1269     O1293   2.435       .  S
Zr1269     O1295   2.433       .  S
Zr1269     O1273   2.390       .  S
Zr1269     O1276   2.387       .  S
Zr1270     O1296   2.435       .  S
Zr1270     O1297   2.435       .  S
Zr1270     O1272   2.436       .  S
Zr1270     O1273   2.389       .  S
Zr1270     O1274   2.388       .  S
O1271      H1308   0.989       .  S
O1272      H1303   0.990       .  S
O1272      H1317   0.990       .  S
O1274      H1300   0.966       .  S
O1275     Zr1285   2.375       .  S
O1276     Zr1285   2.374       .  S
O1276      H1301   0.966       .  S
C1277      C2526   1.430       .  S
C1278      C2484   1.438       .  S
C1279      C3018   1.440       .  S
O1280      H1316   0.990       .  S
O1281      C1283   1.283       .  A
O1282      C1283   1.284       .  A
C1283      C2500   1.435       .  S
O1284     Zr1285   2.439       .  S
O1284      H1313   0.991       .  S
Zr1285     O1288   2.437       .  S
Zr1285     O1289   2.439       .  S
Zr1285     O1290   2.416       .  S
O1286      C1291   1.283       .  A
O1287      H1304   0.991       .  S
O1287      H1319   0.990       .  S
O1288      H1305   0.991       .  S
O1289      H1309   0.989       .  S
O1289      H1318   0.991       .  S
O1290      C1291   1.280       .  A
C1291      C2514   1.431       .  S
O1292      H1311   0.990       .  S
O1292      H1315   0.990       .  S
O1293      H1307   0.990       .  S
O1293      H1314   0.990       .  S
O1294      C1298   1.285       .  A
O1295      C1298   1.284       .  A
O1296      H1306   0.990       .  S
O1297      H1310   0.990       .  S
C1298      C2596   1.438       .  S
Zr1321     O1322   2.442       .  S
Zr1321     O1323   2.439       .  S
Zr1321     O1324   2.455       .  S
Zr1321     O1327   2.441       .  S
Zr1321     O1329   2.384       .  S
Zr1321     O1330   2.390       .  S
Zr1321     O1331   2.408       .  S
Zr1321     O1332   2.403       .  S
O1322      H1378   0.990       .  S
O1322      H1386   0.991       .  S
O1323      C1343   1.282       .  A
O1324      C1345   1.285       .  A
O1325     Zr1335   2.426       .  S
O1325      C1344   1.282       .  A
O1326     Zr1334   2.427       .  S
O1326      C1345   1.282       .  A
O1327      C1344   1.284       .  A
O1328     Zr1336   2.404       .  S
O1328      C1343   1.277       .  A
O1329     Zr1334   2.395       .  S
O1329     Zr1336   2.383       .  S
O1330     Zr1335   2.394       .  S
O1330     Zr1336   2.381       .  S
O1330      H1365   0.967       .  S
O1331     Zr1334   2.401       .  S
O1331     Zr1351   2.392       .  S
O1331      H1368   0.965       .  S
O1332     Zr1335   2.393       .  S
O1332     Zr1351   2.389       .  S
Zr1333     O1358   2.446       .  S
Zr1333     O1352   2.435       .  S
Zr1333     O1360   2.441       .  S
Zr1333     O1348   2.440       .  S
Zr1333     O1339   2.400       .  S
Zr1333     O1340   2.403       .  S
Zr1333     O1341   2.380       .  S
Zr1333     O1342   2.383       .  S
Zr1334     O1353   2.435       .  S
Zr1334     O1346   2.436       .  S
Zr1334     O1347   2.427       .  S
Zr1334     O1340   2.395       .  S
Zr1334     O1341   2.388       .  S
Zr1335     O1337   2.435       .  S
Zr1335     O1359   2.436       .  S
Zr1335     O1361   2.434       .  S
Zr1335     O1339   2.387       .  S
Zr1335     O1342   2.388       .  S
Zr1336     O1362   2.436       .  S
Zr1336     O1363   2.436       .  S
Zr1336     O1338   2.436       .  S
Zr1336     O1339   2.390       .  S
Zr1336     O1340   2.389       .  S
O1337      H1374   0.990       .  S
O1338      H1369   0.991       .  S
O1338      H1383   0.989       .  S
O1340      H1366   0.966       .  S
O1341     Zr1351   2.374       .  S
O1342     Zr1351   2.377       .  S
O1342      H1367   0.965       .  S
C1343      C2428   1.429       .  S
C1344      C2456   1.436       .  S
C1345      C3382   1.441       .  S
O1346      H1382   0.990       .  S
O1347      C1349   1.283       .  A
O1348      C1349   1.285       .  A
C1349      C2654   1.436       .  S
O1350     Zr1351   2.440       .  S
O1350      H1379   0.990       .  S
Zr1351     O1354   2.437       .  S
Zr1351     O1355   2.439       .  S
Zr1351     O1356   2.417       .  S
O1352      C1357   1.283       .  A
O1353      H1370   0.989       .  S
O1353      H1385   0.990       .  S
O1354      H1371   0.990       .  S
O1355      H1375   0.990       .  S
O1355      H1384   0.989       .  S
O1356      C1357   1.279       .  A
C1357      C2442   1.432       .  S
O1358      H1377   0.991       .  S
O1358      H1381   0.990       .  S
O1359      H1373   0.991       .  S
O1359      H1380   0.989       .  S
O1360      C1364   1.285       .  A
O1361      C1364   1.284       .  A
O1362      H1372   0.991       .  S
O1363      H1376   0.990       .  S
C1364      C2472   1.440       .  S
Zr1387     O1388   2.442       .  S
Zr1387     O1389   2.444       .  S
Zr1387     O1390   2.452       .  S
Zr1387     O1393   2.445       .  S
Zr1387     O1395   2.384       .  S
Zr1387     O1396   2.388       .  S
Zr1387     O1397   2.411       .  S
Zr1387     O1398   2.401       .  S
O1388      H1444   0.990       .  S
O1388      H1452   0.990       .  S
O1389      C1409   1.283       .  A
O1390      C1411   1.285       .  A
O1391     Zr1401   2.427       .  S
O1391      C1410   1.282       .  A
O1392     Zr1400   2.421       .  S
O1392      C1411   1.280       .  A
O1393      C1410   1.285       .  A
O1394     Zr1402   2.406       .  S
O1394      C1409   1.277       .  A
O1395     Zr1400   2.396       .  S
O1395     Zr1402   2.383       .  S
O1396     Zr1401   2.394       .  S
O1396     Zr1402   2.380       .  S
O1396      H1431   0.966       .  S
O1397     Zr1400   2.402       .  S
O1397     Zr1417   2.391       .  S
O1397      H1434   0.964       .  S
O1398     Zr1401   2.392       .  S
O1398     Zr1417   2.386       .  S
Zr1399     O1424   2.449       .  S
Zr1399     O1418   2.434       .  S
Zr1399     O1426   2.436       .  S
Zr1399     O1414   2.438       .  S
Zr1399     O1405   2.400       .  S
Zr1399     O1406   2.402       .  S
Zr1399     O1407   2.380       .  S
Zr1399     O1408   2.385       .  S
Zr1400     O1419   2.437       .  S
Zr1400     O1412   2.435       .  S
Zr1400     O1413   2.425       .  S
Zr1400     O1406   2.393       .  S
Zr1400     O1407   2.388       .  S
Zr1401     O1403   2.435       .  S
Zr1401     O1425   2.437       .  S
Zr1401     O1427   2.433       .  S
Zr1401     O1405   2.389       .  S
Zr1401     O1408   2.390       .  S
Zr1402     O1428   2.434       .  S
Zr1402     O1429   2.434       .  S
Zr1402     O1404   2.437       .  S
Zr1402     O1405   2.389       .  S
Zr1402     O1406   2.389       .  S
O1403      H1440   0.991       .  S
O1404      H1435   0.990       .  S
O1404      H1449   0.989       .  S
O1406      H1432   0.966       .  S
O1407     Zr1417   2.374       .  S
O1408     Zr1417   2.375       .  S
O1408      H1433   0.965       .  S
C1409      C2444   1.432       .  S
C1410      C2400   1.437       .  S
C1411      C3326   1.437       .  S
O1412      H1448   0.990       .  S
O1413      C1415   1.282       .  A
O1414      C1415   1.284       .  A
C1415      C2584   1.433       .  S
O1416     Zr1417   2.438       .  S
O1416      H1445   0.990       .  S
Zr1417     O1420   2.438       .  S
Zr1417     O1421   2.439       .  S
Zr1417     O1422   2.413       .  S
O1418      C1423   1.283       .  A
O1419      H1436   0.990       .  S
O1419      H1451   0.990       .  S
O1420      H1437   0.990       .  S
O1421      H1441   0.989       .  S
O1421      H1450   0.991       .  S
O1422      C1423   1.279       .  A
C1423      C2430   1.430       .  S
O1424      H1443   0.990       .  S
O1424      H1447   0.990       .  S
O1425      H1439   0.990       .  S
O1425      H1446   0.990       .  S
O1426      C1430   1.284       .  A
O1427      C1430   1.283       .  A
O1428      H1438   0.989       .  S
O1429      H1442   0.990       .  S
C1430      C2414   1.438       .  S
Zr1453     O1454   2.442       .  S
Zr1453     O1455   2.434       .  S
Zr1453     O1456   2.451       .  S
Zr1453     O1459   2.438       .  S
Zr1453     O1461   2.382       .  S
Zr1453     O1462   2.389       .  S
Zr1453     O1463   2.407       .  S
Zr1453     O1464   2.400       .  S
O1454      H1510   0.991       .  S
O1454      H1518   0.990       .  S
O1455      C1475   1.281       .  A
O1456      C1477   1.284       .  A
O1457     Zr1467   2.424       .  S
O1457      C1476   1.282       .  A
O1458     Zr1466   2.424       .  S
O1458      C1477   1.281       .  A
O1459      C1476   1.284       .  A
O1460     Zr1468   2.406       .  S
O1460      C1475   1.277       .  A
O1461     Zr1466   2.397       .  S
O1461     Zr1468   2.384       .  S
O1462     Zr1467   2.394       .  S
O1462     Zr1468   2.380       .  S
O1462      H1497   0.966       .  S
O1463     Zr1466   2.399       .  S
O1463     Zr1483   2.391       .  S
O1463      H1500   0.965       .  S
O1464     Zr1467   2.392       .  S
O1464     Zr1483   2.387       .  S
Zr1465     O1490   2.447       .  S
Zr1465     O1484   2.432       .  S
Zr1465     O1492   2.439       .  S
Zr1465     O1480   2.435       .  S
Zr1465     O1471   2.397       .  S
Zr1465     O1472   2.402       .  S
Zr1465     O1473   2.381       .  S
Zr1465     O1474   2.384       .  S
Zr1466     O1485   2.437       .  S
Zr1466     O1478   2.436       .  S
Zr1466     O1479   2.425       .  S
Zr1466     O1472   2.395       .  S
Zr1466     O1473   2.386       .  S
Zr1467     O1469   2.435       .  S
Zr1467     O1491   2.436       .  S
Zr1467     O1493   2.433       .  S
Zr1467     O1471   2.388       .  S
Zr1467     O1474   2.386       .  S
Zr1468     O1494   2.436       .  S
Zr1468     O1495   2.436       .  S
Zr1468     O1470   2.436       .  S
Zr1468     O1471   2.388       .  S
Zr1468     O1472   2.390       .  S
O1469      H1506   0.990       .  S
O1470      H1501   0.990       .  S
O1470      H1515   0.990       .  S
O1472      H1498   0.966       .  S
O1473     Zr1483   2.373       .  S
O1474     Zr1483   2.378       .  S
O1474      H1499   0.965       .  S
C1475      C2360   1.427   1_545  S
C1476      C2388   1.434       .  S
C1477      C3256   1.437       .  S
O1478      H1514   0.990       .  S
O1479      C1481   1.282       .  A
O1480      C1481   1.284       .  A
C1481      C2556   1.432       .  S
O1482     Zr1483   2.440       .  S
O1482      H1511   0.991       .  S
Zr1483     O1486   2.437       .  S
Zr1483     O1487   2.439       .  S
Zr1483     O1488   2.415       .  S
O1484      C1489   1.283       .  A
O1485      H1502   0.990       .  S
O1485      H1517   0.990       .  S
O1486      H1503   0.990       .  S
O1487      H1507   0.989       .  S
O1487      H1516   0.991       .  S
O1488      C1489   1.280       .  A
C1489      C2374   1.429       .  S
O1490      H1509   0.990       .  S
O1490      H1513   0.991       .  S
O1491      H1505   0.991       .  S
O1491      H1512   0.990       .  S
O1492      C1496   1.284       .  A
O1493      C1496   1.283       .  A
O1494      H1504   0.990       .  S
O1495      H1508   0.990       .  S
C1496      C2470   1.440       .  S
Zr1519     O1520   2.441       .  S
Zr1519     O1521   2.437       .  S
Zr1519     O1522   2.451       .  S
Zr1519     O1525   2.437       .  S
Zr1519     O1527   2.383       .  S
Zr1519     O1528   2.390       .  S
Zr1519     O1529   2.406       .  S
Zr1519     O1530   2.401       .  S
O1520      H1576   0.990       .  S
O1520      H1584   0.991       .  S
O1521      C1541   1.282       .  A
O1522      C1543   1.285       .  A
O1523     Zr1533   2.428       .  S
O1523      C1542   1.283       .  A
O1524     Zr1532   2.425       .  S
O1524      C1543   1.281       .  A
O1525      C1542   1.284       .  A
O1526     Zr1534   2.412       .  S
O1526      C1541   1.278       .  A
O1527     Zr1532   2.394       .  S
O1527     Zr1534   2.381       .  S
O1528     Zr1533   2.392       .  S
O1528     Zr1534   2.377       .  S
O1528      H1563   0.967       .  S
O1529     Zr1532   2.399       .  S
O1529     Zr1549   2.388       .  S
O1529      H1566   0.965       .  S
O1530     Zr1533   2.392       .  S
O1530     Zr1549   2.388       .  S
Zr1531     O1556   2.447       .  S
Zr1531     O1550   2.431       .  S
Zr1531     O1558   2.439       .  S
Zr1531     O1546   2.442       .  S
Zr1531     O1537   2.402       .  S
Zr1531     O1538   2.403       .  S
Zr1531     O1539   2.381       .  S
Zr1531     O1540   2.383       .  S
Zr1532     O1551   2.437       .  S
Zr1532     O1544   2.434       .  S
Zr1532     O1545   2.427       .  S
Zr1532     O1538   2.394       .  S
Zr1532     O1539   2.389       .  S
Zr1533     O1535   2.435       .  S
Zr1533     O1557   2.436       .  S
Zr1533     O1559   2.433       .  S
Zr1533     O1537   2.390       .  S
Zr1533     O1540   2.387       .  S
Zr1534     O1560   2.435       .  S
Zr1534     O1561   2.436       .  S
Zr1534     O1536   2.437       .  S
Zr1534     O1537   2.393       .  S
Zr1534     O1538   2.392       .  S
O1535      H1572   0.991       .  S
O1536      H1567   0.991       .  S
O1536      H1581   0.990       .  S
O1538      H1564   0.965       .  S
O1539     Zr1549   2.376       .  S
O1540     Zr1549   2.376       .  S
O1540      H1565   0.965       .  S
C1541      C2372   1.431       .  S
C1542      C2344   1.436       .  S
C1543      C3214   1.438       .  S
O1544      H1580   0.990       .  S
O1545      C1547   1.282       .  A
O1546      C1547   1.285       .  A
C1547      C2498   1.436       .  S
O1548     Zr1549   2.439       .  S
O1548      H1577   0.990       .  S
Zr1549     O1552   2.438       .  S
Zr1549     O1553   2.439       .  S
Zr1549     O1554   2.415       .  S
O1550      C1555   1.282       .  A
O1551      H1568   0.991       .  S
O1551      H1583   0.990       .  S
O1552      H1569   0.990       .  S
O1553      H1573   0.990       .  S
O1553      H1582   0.991       .  S
O1554      C1555   1.280       .  A
C1555      C2358   1.428       .  S
O1556      H1575   0.990       .  S
O1556      H1579   0.990       .  S
O1557      H1571   0.990       .  S
O1557      H1578   0.990       .  S
O1558      C1562   1.284       .  A
O1559      C1562   1.283       .  A
O1560      H1570   0.990       .  S
O1561      H1574   0.990       .  S
C1562      C2416   1.439       .  S
Zr1585     O1586   2.443       .  S
Zr1585     O1587   2.443       .  S
Zr1585     O1588   2.446       .  S
Zr1585     O1591   2.432       .  S
Zr1585     O1593   2.379       .  S
Zr1585     O1594   2.389       .  S
Zr1585     O1595   2.407       .  S
Zr1585     O1596   2.401       .  S
O1586      H1642   0.990       .  S
O1586      H1650   0.991       .  S
O1587      C1607   1.284       .  A
O1588      C1609   1.283       .  A
O1589     Zr1599   2.430       .  S
O1589      C1608   1.283       .  A
O1590     Zr1598   2.427       .  S
O1590      C1609   1.281       .  A
O1591      C1608   1.283       .  A
O1592     Zr1600   2.405       .  S
O1592      C1607   1.277       .  A
O1593     Zr1598   2.393       .  S
O1593     Zr1600   2.380       .  S
O1594     Zr1599   2.393       .  S
O1594     Zr1600   2.379       .  S
O1594      H1629   0.966       .  S
O1595     Zr1598   2.399       .  S
O1595     Zr1615   2.396   1_545  S
O1595      H1632   0.965       .  S
O1596     Zr1599   2.392       .  S
O1596     Zr1615   2.386   1_545  S
Zr1597     O1622   2.447       .  S
Zr1597     O1616   2.441   1_545  S
Zr1597     O1624   2.441   1_545  S
Zr1597     O1612   2.435   1_545  S
Zr1597     O1603   2.402       .  S
Zr1597     O1604   2.406       .  S
Zr1597     O1605   2.382   1_545  S
Zr1597     O1606   2.382   1_545  S
Zr1598     O1617   2.437       .  S
Zr1598     O1610   2.437       .  S
Zr1598     O1611   2.422       .  S
Zr1598     O1604   2.397       .  S
Zr1598     O1605   2.390   1_545  S
Zr1599     O1601   2.435       .  S
Zr1599     O1623   2.438       .  S
Zr1599     O1625   2.440       .  S
Zr1599     O1603   2.387       .  S
Zr1599     O1606   2.391   1_545  S
Zr1600     O1626   2.435       .  S
Zr1600     O1627   2.434       .  S
Zr1600     O1602   2.436       .  S
Zr1600     O1603   2.393       .  S
Zr1600     O1604   2.387       .  S
O1601      H1638   0.991       .  S
O1602      H1633   0.990       .  S
O1602      H1647   0.991       .  S
O1604      H1630   0.966       .  S
O1605     Zr1615   2.373       .  S
O1606     Zr1615   2.377       .  S
O1606      H1631   0.965       .  S
C1607      C2302   1.431       .  S
C1608      C2386   1.434       .  S
C1609      C2948   1.437       .  S
O1610      H1646   0.990       .  S
O1611      C1613   1.282   1_545  A
O1612      C1613   1.284       .  A
C1613      C2316   1.429       .  S
O1614     Zr1615   2.438       .  S
O1614      H1643   0.991       .  S
Zr1615     O1618   2.438       .  S
Zr1615     O1619   2.438       .  S
Zr1615     O1620   2.415       .  S
O1616      C1621   1.285       .  A
O1617      H1634   0.990       .  S
O1617      H1649   0.990       .  S
O1618      H1635   0.991       .  S
O1619      H1639   0.990       .  S
O1619      H1648   0.990       .  S
O1620      C1621   1.279       .  A
C1621      C2290   1.434       .  S
O1622      H1641   0.991       .  S
O1622      H1645   0.990       .  S
O1623      H1637   0.990       .  S
O1623      H1644   0.990       .  S
O1624      C1628   1.285   1_565  A
O1625      C1628   1.285       .  A
O1626      H1636   0.991       .  S
O1627      H1640   0.990       .  S
C1628      C2332   1.443   1_545  S
Zr1651     O1652   2.442       .  S
Zr1651     O1653   2.445       .  S
Zr1651     O1654   2.450       .  S
Zr1651     O1657   2.441       .  S
Zr1651     O1659   2.383       .  S
Zr1651     O1660   2.389       .  S
Zr1651     O1661   2.411       .  S
Zr1651     O1662   2.401       .  S
O1652      H1708   0.990       .  S
O1652      H1716   0.991       .  S
O1653      C1673   1.283       .  A
O1654      C1675   1.284       .  A
O1655     Zr1665   2.428       .  S
O1655      C1674   1.282       .  A
O1656     Zr1664   2.427       .  S
O1656      C1675   1.281       .  A
O1657      C1674   1.284       .  A
O1658     Zr1666   2.406       .  S
O1658      C1673   1.277       .  A
O1659     Zr1664   2.396       .  S
O1659     Zr1666   2.383       .  S
O1660     Zr1665   2.396       .  S
O1660     Zr1666   2.381       .  S
O1660      H1695   0.965       .  S
O1661     Zr1664   2.400       .  S
O1661     Zr1681   2.395       .  S
O1661      H1698   0.966       .  S
O1662     Zr1665   2.392       .  S
O1662     Zr1681   2.385       .  S
Zr1663     O1688   2.447       .  S
Zr1663     O1682   2.435       .  S
Zr1663     O1690   2.436       .  S
Zr1663     O1678   2.434       .  S
Zr1663     O1669   2.399       .  S
Zr1663     O1670   2.403       .  S
Zr1663     O1671   2.381       .  S
Zr1663     O1672   2.383       .  S
Zr1664     O1683   2.436       .  S
Zr1664     O1676   2.435       .  S
Zr1664     O1677   2.426       .  S
Zr1664     O1670   2.395       .  S
Zr1664     O1671   2.388       .  S
Zr1665     O1667   2.435       .  S
Zr1665     O1689   2.437       .  S
Zr1665     O1691   2.434       .  S
Zr1665     O1669   2.389       .  S
Zr1665     O1672   2.389       .  S
Zr1666     O1692   2.436       .  S
Zr1666     O1693   2.435       .  S
Zr1666     O1668   2.436       .  S
Zr1666     O1669   2.389       .  S
Zr1666     O1670   2.390       .  S
O1667      H1704   0.990       .  S
O1668      H1699   0.991       .  S
O1668      H1713   0.989       .  S
O1670      H1696   0.966       .  S
O1671     Zr1681   2.373       .  S
O1672     Zr1681   2.376       .  S
O1672      H1697   0.967       .  S
C1673      C2288   1.433       .  S
C1674      C2346   1.436       .  S
C1675      C2906   1.439       .  S
O1676      H1712   0.990       .  S
O1677      C1679   1.282       .  A
O1678      C1679   1.284       .  A
C1679      C2260   1.433       .  S
O1680     Zr1681   2.438       .  S
O1680      H1709   0.991       .  S
Zr1681     O1684   2.438       .  S
Zr1681     O1685   2.439       .  S
Zr1681     O1686   2.416       .  S
O1682      C1687   1.283       .  A
O1683      H1700   0.991       .  S
O1683      H1715   0.989       .  S
O1684      H1701   0.990       .  S
O1685      H1705   0.990       .  S
O1685      H1714   0.990       .  S
O1686      C1687   1.279       .  A
C1687      C2304   1.431       .  S
O1688      H1707   0.990       .  S
O1688      H1711   0.991       .  S
O1689      H1703   0.990       .  S
O1689      H1710   0.990       .  S
O1690      C1694   1.284       .  A
O1691      C1694   1.284       .  A
O1692      H1702   0.990       .  S
O1693      H1706   0.990       .  S
C1694      C2274   1.437       .  S
Zr1717     O1718   2.441       .  S
Zr1717     O1719   2.440       .  S
Zr1717     O1720   2.447       .  S
Zr1717     O1723   2.437       .  S
Zr1717     O1725   2.383       .  S
Zr1717     O1726   2.386       .  S
Zr1717     O1727   2.409       .  S
Zr1717     O1728   2.400       .  S
O1718      H1774   0.990       .  S
O1718      H1782   0.990       .  S
O1719      C1739   1.283       .  A
O1720      C1741   1.284       .  A
O1721     Zr1731   2.427       .  S
O1721      C1740   1.282       .  A
O1722     Zr1730   2.425       .  S
O1722      C1741   1.281       .  A
O1723      C1740   1.283       .  A
O1724     Zr1732   2.405       .  S
O1724      C1739   1.277       .  A
O1725     Zr1730   2.398       .  S
O1725     Zr1732   2.381       .  S
O1726     Zr1731   2.391       .  S
O1726     Zr1732   2.379       .  S
O1726      H1761   0.965       .  S
O1727     Zr1730   2.401       .  S
O1727     Zr1747   2.393       .  S
O1727      H1764   0.965       .  S
O1728     Zr1731   2.390       .  S
O1728     Zr1747   2.388       .  S
Zr1729     O1754   2.447       .  S
Zr1729     O1748   2.433       .  S
Zr1729     O1756   2.434       .  S
Zr1729     O1744   2.437       .  S
Zr1729     O1735   2.401       .  S
Zr1729     O1736   2.402       .  S
Zr1729     O1737   2.380       .  S
Zr1729     O1738   2.383       .  S
Zr1730     O1749   2.437       .  S
Zr1730     O1742   2.435       .  S
Zr1730     O1743   2.434       .  S
Zr1730     O1736   2.395       .  S
Zr1730     O1737   2.385       .  S
Zr1731     O1733   2.435       .  S
Zr1731     O1755   2.436       .  S
Zr1731     O1757   2.431       .  S
Zr1731     O1735   2.391       .  S
Zr1731     O1738   2.388       .  S
Zr1732     O1758   2.436       .  S
Zr1732     O1759   2.435       .  S
Zr1732     O1734   2.437       .  S
Zr1732     O1735   2.393       .  S
Zr1732     O1736   2.387       .  S
O1733      H1770   0.990       .  S
O1734      H1765   0.990       .  S
O1734      H1779   0.990       .  S
O1736      H1762   0.966       .  S
O1737     Zr1747   2.374       .  S
O1738     Zr1747   2.375       .  S
O1738      H1763   0.966       .  S
C1739      C2232   1.430       .  S
C1740      C2458   1.435       .  S
C1741      C2850   1.436       .  S
O1742      H1778   0.990       .  S
O1743      C1745   1.284       .  A
O1744      C1745   1.284       .  A
C1745      C2246   1.437       .  S
O1746     Zr1747   2.438       .  S
O1746      H1775   0.990       .  S
Zr1747     O1750   2.437       .  S
Zr1747     O1751   2.439       .  S
Zr1747     O1752   2.414       .  S
O1748      C1753   1.283       .  A
O1749      H1766   0.990       .  S
O1749      H1781   0.991       .  S
O1750      H1767   0.990       .  S
O1751      H1771   0.990       .  S
O1751      H1780   0.990       .  S
O1752      C1753   1.279       .  A
C1753      C2218   1.431       .  S
O1754      H1773   0.990       .  S
O1754      H1777   0.990       .  S
O1755      H1769   0.990       .  S
O1755      H1776   0.990       .  S
O1756      C1760   1.283       .  A
O1757      C1760   1.283       .  A
O1758      H1768   0.991       .  S
O1759      H1772   0.990       .  S
C1760      C2276   1.436       .  S
Zr1783     O1784   2.442       .  S
Zr1783     O1785   2.443       .  S
Zr1783     O1786   2.452       .  S
Zr1783     O1789   2.441       .  S
Zr1783     O1791   2.383       .  S
Zr1783     O1792   2.387       .  S
Zr1783     O1793   2.410       .  S
Zr1783     O1794   2.404       .  S
O1784      H1840   0.991       .  S
O1784      H1848   0.990       .  S
O1785      C1805   1.283       .  A
O1786      C1807   1.284       .  A
O1787     Zr1797   2.426       .  S
O1787      C1806   1.282       .  A
O1788     Zr1796   2.427       .  S
O1788      C1807   1.281       .  A
O1789      C1806   1.284       .  A
O1790     Zr1798   2.405       .  S
O1790      C1805   1.276       .  A
O1791     Zr1796   2.395       .  S
O1791     Zr1798   2.382       .  S
O1792     Zr1797   2.397       .  S
O1792     Zr1798   2.380       .  S
O1792      H1827   0.966       .  S
O1793     Zr1796   2.402       .  S
O1793     Zr1813   2.391       .  S
O1793      H1830   0.965       .  S
O1794     Zr1797   2.392       .  S
O1794     Zr1813   2.390       .  S
Zr1795     O1820   2.447       .  S
Zr1795     O1814   2.428       .  S
Zr1795     O1822   2.442       .  S
Zr1795     O1810   2.439       .  S
Zr1795     O1801   2.398       .  S
Zr1795     O1802   2.403       .  S
Zr1795     O1803   2.382       .  S
Zr1795     O1804   2.384       .  S
Zr1796     O1815   2.437       .  S
Zr1796     O1808   2.436       .  S
Zr1796     O1809   2.425       .  S
Zr1796     O1802   2.397       .  S
Zr1796     O1803   2.390       .  S
Zr1797     O1799   2.436       .  S
Zr1797     O1821   2.437       .  S
Zr1797     O1823   2.437       .  S
Zr1797     O1801   2.390       .  S
Zr1797     O1804   2.387       .  S
Zr1798     O1824   2.435       .  S
Zr1798     O1825   2.435       .  S
Zr1798     O1800   2.437       .  S
Zr1798     O1801   2.391       .  S
Zr1798     O1802   2.389       .  S
O1799      H1836   0.991       .  S
O1800      H1831   0.990       .  S
O1800      H1845   0.990       .  S
O1802      H1828   0.967       .  S
O1803     Zr1813   2.373       .  S
O1804     Zr1813   2.377       .  S
O1804      H1829   0.966       .  S
C1805      C2220   1.432       .  S
C1806      C2402   1.437       .  S
C1807      C2822   1.439       .  S
O1808      H1844   0.990       .  S
O1809      C1811   1.282       .  A
O1810      C1811   1.284       .  A
C1811      C2204   1.434       .  S
O1812     Zr1813   2.439       .  S
O1812      H1841   0.991       .  S
Zr1813     O1816   2.437       .  S
Zr1813     O1817   2.439       .  S
Zr1813     O1818   2.416   1_565  S
O1814      C1819   1.282   1_565  A
O1815      H1832   0.991       .  S
O1815      H1847   0.989       .  S
O1816      H1833   0.990       .  S
O1817      H1837   0.990       .  S
O1817      H1846   0.990       .  S
O1818      C1819   1.279       .  A
C1819      C2234   1.428       .  S
O1820      H1839   0.990       .  S
O1820      H1843   0.990       .  S
O1821      H1835   0.990       .  S
O1821      H1842   0.990       .  S
O1822      C1826   1.285       .  A
O1823      C1826   1.284       .  A
O1824      H1834   0.990       .  S
O1825      H1838   0.990       .  S
C1826      C2330   1.443       .  S
Zr1849     O1850   2.442       .  S
Zr1849     O1851   2.440       .  S
Zr1849     O1852   2.450       .  S
Zr1849     O1855   2.440       .  S
Zr1849     O1857   2.383       .  S
Zr1849     O1858   2.388       .  S
Zr1849     O1859   2.410       .  S
Zr1849     O1860   2.401       .  S
O1850      H1906   0.991       .  S
O1850      H1914   0.990       .  S
O1851      C1871   1.283       .  A
O1852      C1873   1.284       .  A
O1853     Zr1863   2.422       .  S
O1853      C1872   1.281       .  A
O1854     Zr1862   2.426       .  S
O1854      C1873   1.281       .  A
O1855      C1872   1.285       .  A
O1856     Zr1864   2.408       .  S
O1856      C1871   1.277       .  A
O1857     Zr1862   2.397       .  S
O1857     Zr1864   2.381       .  S
O1858     Zr1863   2.394       .  S
O1858     Zr1864   2.378       .  S
O1858      H1893   0.966       .  S
O1859     Zr1862   2.401       .  S
O1859     Zr1879   2.393   1_545  S
O1859      H1896   0.966       .  S
O1860     Zr1863   2.392       .  S
O1860     Zr1879   2.387   1_545  S
Zr1861     O1886   2.448   1_545  S
Zr1861     O1880   2.432   1_545  S
Zr1861     O1888   2.443   1_545  S
Zr1861     O1876   2.438   1_545  S
Zr1861     O1867   2.402       .  S
Zr1861     O1868   2.403       .  S
Zr1861     O1869   2.384   1_545  S
Zr1861     O1870   2.382   1_545  S
Zr1862     O1881   2.437       .  S
Zr1862     O1874   2.435       .  S
Zr1862     O1875   2.426       .  S
Zr1862     O1868   2.395       .  S
Zr1862     O1869   2.389   1_545  S
Zr1863     O1865   2.435       .  S
Zr1863     O1887   2.435       .  S
Zr1863     O1889   2.433       .  S
Zr1863     O1867   2.390       .  S
Zr1863     O1870   2.386   1_545  S
Zr1864     O1890   2.436       .  S
Zr1864     O1891   2.435       .  S
Zr1864     O1866   2.437       .  S
Zr1864     O1867   2.394       .  S
Zr1864     O1868   2.387       .  S
O1865      H1902   0.990       .  S
O1866      H1897   0.990       .  S
O1866      H1911   0.990       .  S
O1868      H1894   0.965       .  S
O1869     Zr1879   2.375       .  S
O1870     Zr1879   2.376       .  S
O1870      H1895   0.966       .  S
C1871      C2178   1.431       .  S
C1872      C2640   1.435       .  S
C1873      C2766   1.437       .  S
O1874      H1910   0.989       .  S
O1875      C1877   1.282   1_545  A
O1876      C1877   1.284       .  A
C1877      C2206   1.434       .  S
O1878     Zr1879   2.439       .  S
O1878      H1907   0.990       .  S
Zr1879     O1882   2.438       .  S
Zr1879     O1883   2.439       .  S
Zr1879     O1884   2.414       .  S
O1880      C1885   1.283       .  A
O1881      H1898   0.991       .  S
O1881      H1913   0.989       .  S
O1882      H1899   0.990       .  S
O1883      H1903   0.990       .  S
O1883      H1912   0.990       .  S
O1884      C1885   1.279       .  A
C1885      C2164   1.429       .  S
O1886      H1905   0.989   1_565  S
O1886      H1909   0.990   1_565  S
O1887      H1901   0.989       .  S
O1887      H1908   0.990       .  S
O1888      C1892   1.285       .  A
O1889      C1892   1.283   1_545  A
O1890      H1900   0.991       .  S
O1891      H1904   0.990       .  S
C1892      C2192   1.441       .  S
Zr1915     O1916   2.442       .  S
Zr1915     O1917   2.437       .  S
Zr1915     O1918   2.448       .  S
Zr1915     O1921   2.440       .  S
Zr1915     O1923   2.382       .  S
Zr1915     O1924   2.387       .  S
Zr1915     O1925   2.409       .  S
Zr1915     O1926   2.402       .  S
O1916      H1972   0.991       .  S
O1916      H1980   0.990       .  S
O1917      C1937   1.282       .  A
O1918      C1939   1.284       .  A
O1919     Zr1929   2.425       .  S
O1919      C1938   1.282       .  A
O1920     Zr1928   2.427       .  S
O1920      C1939   1.281       .  A
O1921      C1938   1.284       .  A
O1922     Zr1930   2.405       .  S
O1922      C1937   1.276       .  A
O1923     Zr1928   2.398       .  S
O1923     Zr1930   2.382       .  S
O1924     Zr1929   2.393       .  S
O1924     Zr1930   2.380       .  S
O1924      H1959   0.966       .  S
O1925     Zr1928   2.402       .  S
O1925     Zr1945   2.393       .  S
O1925      H1962   0.966       .  S
O1926     Zr1929   2.393       .  S
O1926     Zr1945   2.390       .  S
Zr1927     O1952   2.447       .  S
Zr1927     O1946   2.437       .  S
Zr1927     O1954   2.434       .  S
Zr1927     O1942   2.437       .  S
Zr1927     O1933   2.401       .  S
Zr1927     O1934   2.405       .  S
Zr1927     O1935   2.381       .  S
Zr1927     O1936   2.382       .  S
Zr1928     O1947   2.436       .  S
Zr1928     O1940   2.435       .  S
Zr1928     O1941   2.433       .  S
Zr1928     O1934   2.397       .  S
Zr1928     O1935   2.388       .  S
Zr1929     O1931   2.435       .  S
Zr1929     O1953   2.436       .  S
Zr1929     O1955   2.431       .  S
Zr1929     O1933   2.389       .  S
Zr1929     O1936   2.388       .  S
Zr1930     O1956   2.436       .  S
Zr1930     O1957   2.436       .  S
Zr1930     O1932   2.437       .  S
Zr1930     O1933   2.392       .  S
Zr1930     O1934   2.390       .  S
O1931      H1968   0.990       .  S
O1932      H1963   0.991       .  S
O1932      H1977   0.990       .  S
O1934      H1960   0.965       .  S
O1935     Zr1945   2.374       .  S
O1936     Zr1945   2.376       .  S
O1936      H1961   0.967       .  S
C1937      C2162   1.429       .  S
C1938      C2568   1.436       .  S
C1939      C2738   1.438       .  S
O1940      H1976   0.990       .  S
O1941      C1943   1.284       .  A
O1942      C1943   1.284       .  A
C1943      C2248   1.437       .  S
O1944     Zr1945   2.439       .  S
O1944      H1973   0.991       .  S
Zr1945     O1948   2.437       .  S
Zr1945     O1949   2.440       .  S
Zr1945     O1950   2.411       .  S
O1946      C1951   1.284       .  A
O1947      H1964   0.990       .  S
O1947      H1979   0.991       .  S
O1948      H1965   0.990       .  S
O1949      H1969   0.991       .  S
O1949      H1978   0.989       .  S
O1950      C1951   1.278       .  A
C1951      C2176   1.431       .  S
O1952      H1971   0.990       .  S
O1952      H1975   0.990       .  S
O1953      H1967   0.991       .  S
O1953      H1974   0.989       .  S
O1954      C1958   1.283       .  A
O1955      C1958   1.283       .  A
O1956      H1966   0.990       .  S
O1957      H1970   0.990       .  S
C1958      C2150   1.436       .  S
Zr1981     O1982   2.441       .  S
Zr1981     O1983   2.440       .  S
Zr1981     O1984   2.450       .  S
Zr1981     O1987   2.444       .  S
Zr1981     O1989   2.384       .  S
Zr1981     O1990   2.386       .  S
Zr1981     O1991   2.408       .  S
Zr1981     O1992   2.401       .  S
O1982      H2038   0.991       .  S
O1982      H2046   0.990       .  S
O1983      C2003   1.282       .  A
O1984      C2005   1.284       .  A
O1985     Zr1995   2.422       .  S
O1985      C2004   1.281       .  A
O1986     Zr1994   2.422       .  S
O1986      C2005   1.280       .  A
O1987      C2004   1.285       .  A
O1988     Zr1996   2.403       .  S
O1988      C2003   1.276       .  A
O1989     Zr1994   2.397       .  S
O1989     Zr1996   2.383       .  S
O1990     Zr1995   2.394       .  S
O1990     Zr1996   2.379       .  S
O1990      H2025   0.966       .  S
O1991     Zr1994   2.402       .  S
O1991     Zr2011   2.391       .  S
O1991      H2028   0.965       .  S
O1992     Zr1995   2.392       .  S
O1992     Zr2011   2.388       .  S
Zr1993     O2018   2.447       .  S
Zr1993     O2012   2.432       .  S
Zr1993     O2020   2.434       .  S
Zr1993     O2008   2.436       .  S
Zr1993     O1999   2.398       .  S
Zr1993     O2000   2.401       .  S
Zr1993     O2001   2.379       .  S
Zr1993     O2002   2.382       .  S
Zr1994     O2013   2.436       .  S
Zr1994     O2006   2.436       .  S
Zr1994     O2007   2.425       .  S
Zr1994     O2000   2.396       .  S
Zr1994     O2001   2.387       .  S
Zr1995     O1997   2.436       .  S
Zr1995     O2019   2.436       .  S
Zr1995     O2021   2.429       .  S
Zr1995     O1999   2.390       .  S
Zr1995     O2002   2.388       .  S
Zr1996     O2022   2.435       .  S
Zr1996     O2023   2.435       .  S
Zr1996     O1998   2.437       .  S
Zr1996     O1999   2.390       .  S
Zr1996     O2000   2.388       .  S
O1997      H2034   0.991       .  S
O1998      H2029   0.991       .  S
O1998      H2043   0.990       .  S
O2000      H2026   0.966       .  S
O2001     Zr2011   2.374       .  S
O2002     Zr2011   2.374       .  S
O2002      H2027   0.965       .  S
C2003      C2136   1.429       .  S
C2004      C2542   1.437       .  S
C2005      C2696   1.436       .  S
O2006      H2042   0.990       .  S
O2007      C2009   1.282       .  A
O2008      C2009   1.283       .  A
C2009      C2262   1.433       .  S
O2010     Zr2011   2.438       .  S
O2010      H2039   0.991       .  S
Zr2011     O2014   2.437       .  S
Zr2011     O2015   2.439       .  S
Zr2011     O2016   2.413       .  S
O2012      C2017   1.283       .  A
O2013      H2030   0.990       .  S
O2013      H2045   0.990       .  S
O2014      H2031   0.990       .  S
O2015      H2035   0.990       .  S
O2015      H2044   0.990       .  S
O2016      C2017   1.279       .  A
C2017      C2120   1.429       .  S
O2018      H2037   0.990       .  S
O2018      H2041   0.990       .  S
O2019      H2033   0.990       .  S
O2019      H2040   0.990       .  S
O2020      C2024   1.283       .  A
O2021      C2024   1.283       .  A
O2022      H2032   0.989       .  S
O2023      H2036   0.990       .  S
C2024      C2148   1.435       .  S
Zr2047     O2048   2.442       .  S
Zr2047     O2049   2.441       .  S
Zr2047     O2050   2.452       .  S
Zr2047     O2053   2.444       .  S
Zr2047     O2055   2.385       .  S
Zr2047     O2056   2.388       .  S
Zr2047     O2057   2.409       .  S
Zr2047     O2058   2.400       .  S
O2048      H2104   0.990       .  S
O2048      H2112   0.991       .  S
O2049      C2069   1.283       .  A
O2050      C2071   1.285       .  A
O2051     Zr2061   2.426       .  S
O2051      C2070   1.282       .  A
O2052     Zr2060   2.429       .  S
O2052      C2071   1.282       .  A
O2053      C2070   1.285       .  A
O2054     Zr2062   2.405       .  S
O2054      C2069   1.277       .  A
O2055     Zr2060   2.395       .  S
O2055     Zr2062   2.384       .  S
O2056     Zr2061   2.394       .  S
O2056     Zr2062   2.381       .  S
O2056      H2091   0.966       .  S
O2057     Zr2060   2.401       .  S
O2057     Zr2077   2.391       .  S
O2057      H2094   0.965       .  S
O2058     Zr2061   2.390       .  S
O2058     Zr2077   2.387       .  S
Zr2059     O2084   2.448       .  S
Zr2059     O2078   2.433       .  S
Zr2059     O2086   2.442       .  S
Zr2059     O2074   2.437       .  S
Zr2059     O2065   2.398       .  S
Zr2059     O2066   2.403       .  S
Zr2059     O2067   2.381       .  S
Zr2059     O2068   2.382       .  S
Zr2060     O2079   2.437       .  S
Zr2060     O2072   2.436       .  S
Zr2060     O2073   2.424       .  S
Zr2060     O2066   2.396       .  S
Zr2060     O2067   2.388       .  S
Zr2061     O2063   2.435       .  S
Zr2061     O2085   2.436       .  S
Zr2061     O2087   2.431       .  S
Zr2061     O2065   2.391       .  S
Zr2061     O2068   2.388       .  S
Zr2062     O2088   2.435       .  S
Zr2062     O2089   2.435       .  S
Zr2062     O2064   2.437       .  S
Zr2062     O2065   2.388       .  S
Zr2062     O2066   2.390       .  S
O2063      H2100   0.990       .  S
O2064      H2095   0.991       .  S
O2064      H2109   0.989       .  S
O2066      H2092   0.966       .  S
O2067     Zr2077   2.372       .  S
O2068     Zr2077   2.376       .  S
O2068      H2093   0.965       .  S
C2069      C2122   1.430       .  S
C2070      C2486   1.438       .  S
C2071      C2682   1.440       .  S
O2072      H2108   0.990       .  S
O2073      C2075   1.282       .  A
O2074      C2075   1.284       .  A
C2075      C2318   1.432       .  S
O2076     Zr2077   2.439       .  S
O2076      H2105   0.991       .  S
Zr2077     O2080   2.437       .  S
Zr2077     O2081   2.439       .  S
Zr2077     O2082   2.410       .  S
O2078      C2083   1.283   1_565  A
O2079      H2096   0.991       .  S
O2079      H2111   0.989       .  S
O2080      H2097   0.991       .  S
O2081      H2101   0.990       .  S
O2081      H2110   0.989       .  S
O2082      C2083   1.278   1_565  A
C2083      C2134   1.428       .  S
O2084      H2103   0.990       .  S
O2084      H2107   0.990       .  S
O2085      H2099   0.991       .  S
O2085      H2106   0.989       .  S
O2086      C2090   1.285       .  A
O2087      C2090   1.283       .  A
O2088      H2098   0.990       .  S
O2089      H2102   0.990       .  S
C2090      C2190   1.439       .  S
C2113      C2121   1.436       .  S
C2113      C2114   1.402       .  A
C2113      C2118   1.399       .  A
C2114      C2115   1.397       .  A
C2114      H2123   1.084       .  S
C2115      C2116   1.399       .  A
C2115      H2124   1.083       .  S
C2116      C2119   1.435       .  S
C2116      C2117   1.402       .  A
C2117      C2118   1.397       .  A
C2117      H2125   1.084       .  S
C2118      H2126   1.083       .  S
C2119      C2120   1.203       .  T
C2121      C2122   1.203       .  T
C2127      C2135   1.435       .  S
C2127      C2128   1.401       .  A
C2127      C2132   1.401       .  A
C2128      C2129   1.398       .  A
C2128      H2137   1.083       .  S
C2129      C2130   1.401       .  A
C2129      H2138   1.084       .  S
C2130      C2133   1.435       .  S
C2130      C2131   1.400       .  A
C2131      C2132   1.397       .  A
C2131      H2139   1.084       .  S
C2132      H2140   1.084       .  S
C2133      C2134   1.203       .  T
C2135      C2136   1.203       .  T
C2141      C2149   1.440       .  S
C2141      C2142   1.401       .  A
C2141      C2146   1.402       .  A
C2142      C2143   1.399       .  A
C2142      H2151   1.083       .  S
C2143      C2144   1.401       .  A
C2143      H2152   1.083       .  S
C2144      C2147   1.440       .  S
C2144      C2145   1.402       .  A
C2145      C2146   1.400       .  A
C2145      H2153   1.084       .  S
C2146      H2154   1.083       .  S
C2147      C2148   1.206       .  T
C2149      C2150   1.206       .  T
C2155      C2163   1.435       .  S
C2155      C2156   1.401       .  A
C2155      C2160   1.400       .  A
C2156      C2157   1.398       .  A
C2156      H2165   1.084       .  S
C2157      C2158   1.401       .  A
C2157      H2166   1.084       .  S
C2158      C2161   1.435       .  S
C2158      C2159   1.400       .  A
C2159      C2160   1.396       .  A
C2159      H2167   1.084       .  S
C2160      H2168   1.083       .  S
C2161      C2162   1.203       .  T
C2163      C2164   1.203       .  T
C2169      C2177   1.437       .  S
C2169      C2170   1.401       .  A
C2169      C2174   1.401       .  A
C2170      C2171   1.398       .  A
C2170      H2179   1.083       .  S
C2171      C2172   1.401       .  A
C2171      H2180   1.084       .  S
C2172      C2175   1.437       .  S
C2172      C2173   1.401       .  A
C2173      C2174   1.398       .  A
C2173      H2181   1.083       .  S
C2174      H2182   1.083       .  S
C2175      C2176   1.204       .  T
C2177      C2178   1.204       .  T
C2183      C2191   1.445       .  S
C2183      C2184   1.402       .  A
C2183      C2188   1.402       .  A
C2184      C2185   1.400       .  A
C2184      H2193   1.083   1_565  S
C2185      C2186   1.401       .  A
C2185      H2194   1.083   1_565  S
C2186      C2189   1.444       .  S
C2186      C2187   1.403       .  A
C2187      C2188   1.402       .  A
C2187      H2195   1.083       .  S
C2188      H2196   1.083       .  S
C2189      C2190   1.209       .  T
C2191      C2192   1.209       .  T
C2197      C2205   1.439       .  S
C2197      C2198   1.402       .  A
C2197      C2202   1.401       .  A
C2198      C2199   1.399   1_455  A
C2198      H2207   1.083   1_565  S
C2199      C2200   1.400       .  A
C2199      H2208   1.083   1_565  S
C2200      C2203   1.439       .  S
C2200      C2201   1.402       .  A
C2201      C2202   1.399   1_655  A
C2201      H2209   1.084       .  S
C2202      H2210   1.083       .  S
C2203      C2204   1.205       .  T
C2205      C2206   1.206       .  T
C2211      C2219   1.438       .  S
C2211      C2212   1.401       .  A
C2211      C2216   1.401       .  A
C2212      C2213   1.398       .  A
C2212      H2221   1.083       .  S
C2213      C2214   1.400       .  A
C2213      H2222   1.084       .  S
C2214      C2217   1.437       .  S
C2214      C2215   1.401       .  A
C2215      C2216   1.398       .  A
C2215      H2223   1.084       .  S
C2216      H2224   1.083       .  S
C2217      C2218   1.204       .  T
C2219      C2220   1.205       .  T
C2225      C2233   1.434       .  S
C2225      C2226   1.401       .  A
C2225      C2230   1.400       .  A
C2226      C2227   1.397       .  A
C2226      H2235   1.084       .  S
C2227      C2228   1.401       .  A
C2227      H2236   1.083       .  S
C2228      C2231   1.435       .  S
C2228      C2229   1.401       .  A
C2229      C2230   1.397       .  A
C2229      H2237   1.083       .  S
C2230      H2238   1.084       .  S
C2231      C2232   1.203       .  T
C2233      C2234   1.202       .  T
C2239      C2247   1.442       .  S
C2239      C2240   1.401       .  A
C2239      C2244   1.402       .  A
C2240      C2241   1.400   1_455  A
C2240      H2249   1.083       .  S
C2241      C2242   1.402       .  A
C2241      H2250   1.083       .  S
C2242      C2245   1.442       .  S
C2242      C2243   1.401       .  A
C2243      C2244   1.400   1_655  A
C2243      H2251   1.083       .  S
C2244      H2252   1.084       .  S
C2245      C2246   1.207       .  T
C2247      C2248   1.207       .  T
C2253      C2261   1.438       .  S
C2253      C2254   1.402       .  A
C2253      C2258   1.400       .  A
C2254      C2255   1.398   1_455  A
C2254      H2263   1.084       .  S
C2255      C2256   1.400       .  A
C2255      H2264   1.083       .  S
C2256      C2259   1.438       .  S
C2256      C2257   1.402       .  A
C2257      C2258   1.399   1_655  A
C2257      H2265   1.083       .  S
C2258      H2266   1.083       .  S
C2259      C2260   1.205       .  T
C2261      C2262   1.205       .  T
C2267      C2275   1.441       .  S
C2267      C2268   1.401       .  A
C2267      C2272   1.402       .  A
C2268      C2269   1.399       .  A
C2268      H2277   1.083       .  S
C2269      C2270   1.402       .  A
C2269      H2278   1.083       .  S
C2270      C2273   1.442       .  S
C2270      C2271   1.402       .  A
C2271      C2272   1.400       .  A
C2271      H2279   1.083       .  S
C2272      H2280   1.083       .  S
C2273      C2274   1.207       .  T
C2275      C2276   1.207       .  T
C2281      C2289   1.440       .  S
C2281      C2282   1.401       .  A
C2281      C2286   1.402       .  A
C2282      C2283   1.399       .  A
C2282      H2291   1.083       .  S
C2283      C2284   1.401       .  A
C2283      H2292   1.083       .  S
C2284      C2287   1.439       .  S
C2284      C2285   1.402       .  A
C2285      C2286   1.400       .  A
C2285      H2293   1.084       .  S
C2286      H2294   1.083       .  S
C2287      C2288   1.205       .  T
C2289      C2290   1.206       .  T
C2295      C2303   1.437       .  S
C2295      C2296   1.402       .  A
C2295      C2300   1.400       .  A
C2296      C2297   1.398       .  A
C2296      H2305   1.084       .  S
C2297      C2298   1.401       .  A
C2297      H2306   1.083       .  S
C2298      C2301   1.437       .  S
C2298      C2299   1.401       .  A
C2299      C2300   1.398       .  A
C2299      H2307   1.083       .  S
C2300      H2308   1.083       .  S
C2301      C2302   1.204       .  T
C2303      C2304   1.204       .  T
C2309      C2317   1.436       .  S
C2309      C2310   1.401       .  A
C2309      C2314   1.401       .  A
C2310      C2311   1.397   1_455  A
C2310      H2319   1.084       .  S
C2311      C2312   1.400       .  A
C2311      H2320   1.084       .  S
C2312      C2315   1.435       .  S
C2312      C2313   1.401       .  A
C2313      C2314   1.398   1_655  A
C2313      H2321   1.084       .  S
C2314      H2322   1.083       .  S
C2315      C2316   1.203       .  T
C2317      C2318   1.204       .  T
C2323      C2331   1.448       .  S
C2323      C2324   1.403       .  A
C2323      C2328   1.403       .  A
C2324      C2325   1.402       .  A
C2324      H2333   1.083       .  S
C2325      C2326   1.403       .  A
C2325      H2334   1.083       .  S
C2326      C2329   1.448       .  S
C2326      C2327   1.403       .  A
C2327      C2328   1.402       .  A
C2327      H2335   1.083       .  S
C2328      H2336   1.083       .  S
C2329      C2330   1.211       .  T
C2331      C2332   1.211       .  T
C2337      C2345   1.441       .  S
C2337      C2338   1.401       .  A
C2337      C2342   1.402       .  A
C2338      C2339   1.400       .  A
C2338      H2347   1.083       .  S
C2339      C2340   1.402       .  A
C2339      H2348   1.083       .  S
C2340      C2343   1.441       .  S
C2340      C2341   1.401       .  A
C2341      C2342   1.399       .  A
C2341      H2349   1.083       .  S
C2342      H2350   1.083       .  S
C2343      C2344   1.207       .  T
C2345      C2346   1.207       .  T
C2351      C2359   1.433       .  S
C2351      C2352   1.399       .  A
C2351      C2356   1.401       .  A
C2352      C2353   1.396       .  A
C2352      H2361   1.084       .  S
C2353      C2354   1.400       .  A
C2353      H2362   1.084       .  S
C2354      C2357   1.433       .  S
C2354      C2355   1.400       .  A
C2355      C2356   1.397       .  A
C2355      H2363   1.084       .  S
C2356      H2364   1.084       .  S
C2357      C2358   1.202       .  T
C2359      C2360   1.202       .  T
C2365      C2373   1.436       .  S
C2365      C2366   1.399       .  A
C2365      C2370   1.402       .  A
C2366      C2367   1.397       .  A
C2366      H2375   1.083       .  S
C2367      C2368   1.402       .  A
C2367      H2376   1.084       .  S
C2368      C2371   1.437       .  S
C2368      C2369   1.399       .  A
C2369      C2370   1.398       .  A
C2369      H2377   1.083       .  S
C2370      H2378   1.084       .  S
C2371      C2372   1.204       .  T
C2373      C2374   1.203       .  T
C2379      C2387   1.439       .  S
C2379      C2380   1.401       .  A
C2379      C2384   1.401       .  A
C2380      C2381   1.398       .  A
C2380      H2389   1.083       .  S
C2381      C2382   1.401       .  A
C2381      H2390   1.083       .  S
C2382      C2385   1.439       .  S
C2382      C2383   1.402       .  A
C2383      C2384   1.399       .  A
C2383      H2391   1.083       .  S
C2384      H2392   1.083       .  S
C2385      C2386   1.206       .  T
C2387      C2388   1.205       .  T
C2393      C2401   1.442       .  S
C2393      C2394   1.401       .  A
C2393      C2398   1.402       .  A
C2394      C2395   1.400       .  A
C2394      H2403   1.083       .  S
C2395      C2396   1.402       .  A
C2395      H2404   1.083       .  S
C2396      C2399   1.442       .  S
C2396      C2397   1.401       .  A
C2397      C2398   1.400       .  A
C2397      H2405   1.083       .  S
C2398      H2406   1.083       .  S
C2399      C2400   1.207       .  T
C2401      C2402   1.207       .  T
C2407      C2415   1.444       .  S
C2407      C2408   1.403       .  A
C2407      C2412   1.402       .  A
C2408      C2409   1.401       .  A
C2408      H2417   1.083       .  S
C2409      C2410   1.402       .  A
C2409      H2418   1.083       .  S
C2410      C2413   1.443       .  S
C2410      C2411   1.402       .  A
C2411      C2412   1.400       .  A
C2411      H2419   1.083       .  S
C2412      H2420   1.083       .  S
C2413      C2414   1.208       .  T
C2415      C2416   1.209       .  T
C2421      C2429   1.436       .  S
C2421      C2422   1.402       .  A
C2421      C2426   1.399       .  A
C2422      C2423   1.398       .  A
C2422      H2431   1.084       .  S
C2423      C2424   1.400       .  A
C2423      H2432   1.083       .  S
C2424      C2427   1.436       .  S
C2424      C2425   1.402       .  A
C2425      C2426   1.397       .  A
C2425      H2433   1.084       .  S
C2426      H2434   1.083       .  S
C2427      C2428   1.203       .  T
C2429      C2430   1.203       .  T
C2435      C2443   1.438   1_545  S
C2435      C2436   1.402       .  A
C2435      C2440   1.400       .  A
C2436      C2437   1.398       .  A
C2436      H2445   1.084       .  S
C2437      C2438   1.400       .  A
C2437      H2446   1.083       .  S
C2438      C2441   1.437       .  S
C2438      C2439   1.402       .  A
C2439      C2440   1.398       .  A
C2439      H2447   1.084       .  S
C2440      H2448   1.083       .  S
C2441      C2442   1.204       .  T
C2443      C2444   1.204       .  T
C2449      C2457   1.441       .  S
C2449      C2450   1.401       .  A
C2449      C2454   1.402       .  A
C2450      C2451   1.399       .  A
C2450      H2459   1.083       .  S
C2451      C2452   1.402       .  A
C2451      H2460   1.083       .  S
C2452      C2455   1.441       .  S
C2452      C2453   1.401       .  A
C2453      C2454   1.400       .  A
C2453      H2461   1.083       .  S
C2454      H2462   1.084       .  S
C2455      C2456   1.207       .  T
C2457      C2458   1.206       .  T
C2463      C2471   1.445       .  S
C2463      C2464   1.402       .  A
C2463      C2468   1.402       .  A
C2464      C2465   1.401       .  A
C2464      H2473   1.083       .  S
C2465      C2466   1.402       .  A
C2465      H2474   1.083       .  S
C2466      C2469   1.445       .  S
C2466      C2467   1.402       .  A
C2467      C2468   1.401       .  A
C2467      H2475   1.083       .  S
C2468      H2476   1.083       .  S
C2469      C2470   1.209       .  T
C2471      C2472   1.209       .  T
C2477      C2485   1.443       .  S
C2477      C2478   1.402       .  A
C2477      C2482   1.402       .  A
C2478      C2479   1.399       .  A
C2478      H2487   1.083       .  S
C2479      C2480   1.401       .  A
C2479      H2488   1.083       .  S
C2480      C2483   1.443       .  S
C2480      C2481   1.403       .  A
C2481      C2482   1.401       .  A
C2481      H2489   1.083       .  S
C2482      H2490   1.083       .  S
C2483      C2484   1.208       .  T
C2485      C2486   1.208       .  T
C2491      C2499   1.441       .  S
C2491      C2492   1.402       .  A
C2491      C2496   1.401       .  A
C2492      C2493   1.400       .  A
C2492      H2501   1.083       .  S
C2493      C2494   1.401       .  A
C2493      H2502   1.083       .  S
C2494      C2497   1.441       .  S
C2494      C2495   1.402       .  A
C2495      C2496   1.399       .  A
C2495      H2503   1.083       .  S
C2496      H2504   1.083       .  S
C2497      C2498   1.207       .  T
C2499      C2500   1.206       .  T
C2505      C2513   1.437       .  S
C2505      C2506   1.402       .  A
C2505      C2510   1.400       .  A
C2506      C2507   1.397       .  A
C2506      H2515   1.084       .  S
C2507      C2508   1.399       .  A
C2507      H2516   1.083       .  S
C2508      C2511   1.437       .  S
C2508      C2509   1.403       .  A
C2509      C2510   1.398       .  A
C2509      H2517   1.084       .  S
C2510      H2518   1.083       .  S
C2511      C2512   1.204       .  T
C2513      C2514   1.204       .  T
C2519      C2527   1.436       .  S
C2519      C2520   1.401       .  A
C2519      C2524   1.400       .  A
C2520      C2521   1.398       .  A
C2520      H2529   1.084       .  S
C2521      C2522   1.401       .  A
C2521      H2530   1.083       .  S
C2522      C2525   1.436   1_545  S
C2522      C2523   1.401       .  A
C2523      C2524   1.397       .  A
C2523      H2531   1.084       .  S
C2524      H2532   1.083       .  S
C2525      C2526   1.203       .  T
C2527      C2528   1.204       .  T
C2533      C2541   1.442       .  S
C2533      C2534   1.401       .  A
C2533      C2538   1.402       .  A
C2534      C2535   1.400       .  A
C2534      H2543   1.083       .  S
C2535      C2536   1.402       .  A
C2535      H2544   1.083       .  S
C2536      C2539   1.441       .  S
C2536      C2537   1.401       .  A
C2537      C2538   1.399       .  A
C2537      H2545   1.083       .  S
C2538      H2546   1.083       .  S
C2539      C2540   1.207       .  T
C2541      C2542   1.207       .  T
C2547      C2555   1.437       .  S
C2547      C2548   1.400       .  A
C2547      C2552   1.402       .  A
C2548      C2549   1.398       .  A
C2548      H2557   1.083       .  S
C2549      C2550   1.401       .  A
C2549      H2558   1.083       .  S
C2550      C2553   1.437       .  S
C2550      C2551   1.400       .  A
C2551      C2552   1.398       .  A
C2551      H2559   1.083       .  S
C2552      H2560   1.084       .  S
C2553      C2554   1.204       .  T
C2555      C2556   1.204       .  T
C2561      C2569   1.443       .  S
C2561      C2562   1.401       .  A
C2561      C2566   1.402       .  A
C2562      C2563   1.400       .  A
C2562      H2571   1.083       .  S
C2563      C2564   1.402       .  A
C2563      H2572   1.084       .  S
C2564      C2567   1.441       .  S
C2564      C2565   1.401       .  A
C2565      C2566   1.400       .  A
C2565      H2573   1.083       .  S
C2566      H2574   1.083       .  S
C2567      C2568   1.207       .  T
C2569      C2570   1.208       .  T
C2575      C2583   1.438       .  S
C2575      C2576   1.402       .  A
C2575      C2580   1.400       .  A
C2576      C2577   1.398       .  A
C2576      H2585   1.084       .  S
C2577      C2578   1.400       .  A
C2577      H2586   1.084       .  S
C2578      C2581   1.437       .  S
C2578      C2579   1.401       .  A
C2579      C2580   1.398       .  A
C2579      H2587   1.084       .  S
C2580      H2588   1.083       .  S
C2581      C2582   1.204       .  T
C2583      C2584   1.205       .  T
C2589      C2597   1.443       .  S
C2589      C2590   1.402       .  A
C2589      C2594   1.402       .  A
C2590      C2591   1.400       .  A
C2590      H2599   1.083       .  S
C2591      C2592   1.402       .  A
C2591      H2600   1.083       .  S
C2592      C2595   1.443       .  S
C2592      C2593   1.402       .  A
C2593      C2594   1.400       .  A
C2593      H2601   1.083       .  S
C2594      H2602   1.083       .  S
C2595      C2596   1.208       .  T
C2597      C2598   1.208       .  T
C2603      C2611   1.437       .  S
C2603      C2604   1.402       .  A
C2603      C2608   1.400       .  A
C2604      C2605   1.397       .  A
C2604      H2613   1.084       .  S
C2605      C2606   1.399       .  A
C2605      H2614   1.083       .  S
C2606      C2609   1.437       .  S
C2606      C2607   1.403       .  A
C2607      C2608   1.399       .  A
C2607      H2615   1.084       .  S
C2608      H2616   1.083       .  S
C2609      C2610   1.204       .  T
C2611      C2612   1.204       .  T
C2617      C2625   1.438       .  S
C2617      C2618   1.402       .  A
C2617      C2622   1.400       .  A
C2618      C2619   1.398       .  A
C2618      H2627   1.084       .  S
C2619      C2620   1.400       .  A
C2619      H2628   1.083       .  S
C2620      C2623   1.438       .  S
C2620      C2621   1.402       .  A
C2621      C2622   1.399       .  A
C2621      H2629   1.084       .  S
C2622      H2630   1.083       .  S
C2623      C2624   1.205       .  T
C2625      C2626   1.205       .  T
C2631      C2639   1.441       .  S
C2631      C2632   1.402       .  A
C2631      C2636   1.401       .  A
C2632      C2633   1.400       .  A
C2632      H2641   1.084       .  S
C2633      C2634   1.402       .  A
C2633      H2642   1.083       .  S
C2634      C2637   1.442       .  S
C2634      C2635   1.402       .  A
C2635      C2636   1.399       .  A
C2635      H2643   1.083       .  S
C2636      H2644   1.083       .  S
C2637      C2638   1.207       .  T
C2639      C2640   1.206       .  T
C2645      C2653   1.441       .  S
C2645      C2646   1.402       .  A
C2645      C2650   1.401       .  A
C2646      C2647   1.400       .  A
C2646      H2655   1.083       .  S
C2647      C2648   1.401       .  A
C2647      H2656   1.083       .  S
C2648      C2651   1.442       .  S
C2648      C2649   1.402       .  A
C2649      C2650   1.400       .  A
C2649      H2657   1.083       .  S
C2650      H2658   1.083       .  S
C2651      C2652   1.207       .  T
C2653      C2654   1.207       .  T
C2659      C2667   1.442       .  S
C2659      C2660   1.402       .  A
C2659      C2664   1.402       .  A
C2660      C2661   1.400       .  A
C2660      H2669   1.083       .  S
C2661      C2662   1.402       .  A
C2661      H2670   1.083       .  S
C2662      C2665   1.442       .  S
C2662      C2663   1.401       .  A
C2663      C2664   1.400       .  A
C2663      H2671   1.083       .  S
C2664      H2672   1.083       .  S
C2665      C2666   1.207       .  T
C2667      C2668   1.207       .  T
C2673      C2681   1.445       .  S
C2673      C2674   1.402       .  A
C2673      C2678   1.402       .  A
C2674      C2675   1.400       .  A
C2674      H2683   1.084       .  S
C2675      C2676   1.402       .  A
C2675      H2684   1.083       .  S
C2676      C2679   1.445       .  S
C2676      C2677   1.403       .  A
C2677      C2678   1.402       .  A
C2677      H2685   1.083       .  S
C2678      H2686   1.083       .  S
C2679      C2680   1.209       .  T
C2681      C2682   1.209       .  T
C2687      C2695   1.441       .  S
C2687      C2688   1.401       .  A
C2687      C2692   1.402       .  A
C2688      C2689   1.399       .  A
C2688      H2697   1.083       .  S
C2689      C2690   1.401       .  A
C2689      H2698   1.083       .  S
C2690      C2693   1.441       .  S
C2690      C2691   1.402       .  A
C2691      C2692   1.400       .  A
C2691      H2699   1.083       .  S
C2692      H2700   1.083       .  S
C2693      C2694   1.207       .  T
C2695      C2696   1.207       .  T
C2701      C2709   1.439       .  S
C2701      C2702   1.402       .  A
C2701      C2706   1.401       .  A
C2702      C2703   1.399       .  A
C2702      H2711   1.083       .  S
C2703      C2704   1.400       .  A
C2703      H2712   1.083       .  S
C2704      C2707   1.439       .  S
C2704      C2705   1.402       .  A
C2705      C2706   1.399       .  A
C2705      H2713   1.084       .  S
C2706      H2714   1.083       .  S
C2707      C2708   1.205       .  T
C2709      C2710   1.206       .  T
C2715      C2723   1.433       .  S
C2715      C2716   1.400       .  A
C2715      C2720   1.400       .  A
C2716      C2717   1.396       .  A
C2716      H2725   1.084       .  S
C2717      C2718   1.400       .  A
C2717      H2726   1.084       .  S
C2718      C2721   1.434       .  S
C2718      C2719   1.401       .  A
C2719      C2720   1.397       .  A
C2719      H2727   1.084       .  S
C2720      H2728   1.084       .  S
C2721      C2722   1.202       .  T
C2723      C2724   1.202       .  T
C2729      C2737   1.443       .  S
C2729      C2730   1.402       .  A
C2729      C2734   1.401       .  A
C2730      C2731   1.402   1_554  A
C2730      H2739   1.083       .  S
C2731      C2732   1.402       .  A
C2731      H2740   1.083       .  S
C2732      C2735   1.443       .  S
C2732      C2733   1.401       .  A
C2733      C2734   1.399   1_556  A
C2733      H2741   1.084       .  S
C2734      H2742   1.084       .  S
C2735      C2736   1.208       .  T
C2737      C2738   1.208       .  T
C2743      C2751   1.443       .  S
C2743      C2744   1.402       .  A
C2743      C2748   1.402       .  A
C2744      C2745   1.400       .  A
C2744      H2753   1.083       .  S
C2745      C2746   1.401       .  A
C2745      H2754   1.083       .  S
C2746      C2749   1.443       .  S
C2746      C2747   1.402       .  A
C2747      C2748   1.401       .  A
C2747      H2755   1.083       .  S
C2748      H2756   1.083       .  S
C2749      C2750   1.208       .  T
C2751      C2752   1.208       .  T
C2757      C2765   1.442       .  S
C2757      C2758   1.402       .  A
C2757      C2762   1.401       .  A
C2758      C2759   1.401   1_554  A
C2758      H2767   1.083       .  S
C2759      C2760   1.402       .  A
C2759      H2768   1.083       .  S
C2760      C2763   1.442       .  S
C2760      C2761   1.401       .  A
C2761      C2762   1.398   1_556  A
C2761      H2769   1.084       .  S
C2762      H2770   1.084       .  S
C2763      C2764   1.207       .  T
C2765      C2766   1.207       .  T
C2771      C2779   1.433       .  S
C2771      C2772   1.400       .  A
C2771      C2776   1.400       .  A
C2772      C2773   1.397       .  A
C2772      H2781   1.084       .  S
C2773      C2774   1.400       .  A
C2773      H2782   1.084       .  S
C2774      C2777   1.433       .  S
C2774      C2775   1.400       .  A
C2775      C2776   1.397       .  A
C2775      H2783   1.084       .  S
C2776      H2784   1.084       .  S
C2777      C2778   1.202       .  T
C2779      C2780   1.202       .  T
C2785      C2793   1.434       .  S
C2785      C2786   1.401       .  A
C2785      C2790   1.400       .  A
C2786      C2787   1.398       .  A
C2786      H2795   1.084       .  S
C2787      C2788   1.400       .  A
C2787      H2796   1.084       .  S
C2788      C2791   1.434       .  S
C2788      C2789   1.400       .  A
C2789      C2790   1.396       .  A
C2789      H2797   1.084       .  S
C2790      H2798   1.083       .  S
C2791      C2792   1.202       .  T
C2793      C2794   1.202       .  T
C2799      C2807   1.442       .  S
C2799      C2800   1.402       .  A
C2799      C2804   1.402       .  A
C2800      C2801   1.400       .  A
C2800      H2809   1.083       .  S
C2801      C2802   1.402       .  A
C2801      H2810   1.083       .  S
C2802      C2805   1.441       .  S
C2802      C2803   1.401       .  A
C2803      C2804   1.399       .  A
C2803      H2811   1.083       .  S
C2804      H2812   1.083       .  S
C2805      C2806   1.207       .  T
C2807      C2808   1.207       .  T
C2813      C2821   1.444       .  S
C2813      C2814   1.402       .  A
C2813      C2818   1.403       .  A
C2814      C2815   1.399   1_554  A
C2814      H2823   1.083       .  S
C2815      C2816   1.401       .  A
C2815      H2824   1.083       .  S
C2816      C2819   1.444       .  S
C2816      C2817   1.403       .  A
C2817      C2818   1.402   1_556  A
C2817      H2825   1.083       .  S
C2818      H2826   1.083       .  S
C2819      C2820   1.208       .  T
C2821      C2822   1.208       .  T
C2827      C2835   1.440       .  S
C2827      C2828   1.401       .  A
C2827      C2832   1.401       .  A
C2828      C2829   1.399   1_455  A
C2828      H2837   1.083       .  S
C2829      C2830   1.401       .  A
C2829      H2838   1.083       .  S
C2830      C2833   1.440       .  S
C2830      C2831   1.402       .  A
C2831      C2832   1.399   1_655  A
C2831      H2839   1.083       .  S
C2832      H2840   1.083       .  S
C2833      C2834   1.206       .  T
C2835      C2836   1.206       .  T
C2841      C2849   1.441       .  S
C2841      C2842   1.402       .  A
C2841      C2846   1.401       .  A
C2842      C2843   1.400   1_554  A
C2842      H2851   1.083       .  S
C2843      C2844   1.402       .  A
C2843      H2852   1.083       .  S
C2844      C2847   1.440       .  S
C2844      C2845   1.401       .  A
C2845      C2846   1.398   1_556  A
C2845      H2853   1.084       .  S
C2846      H2854   1.083       .  S
C2847      C2848   1.206       .  T
C2849      C2850   1.207       .  T
C2855      C2863   1.432       .  S
C2855      C2856   1.400       .  A
C2855      C2860   1.400       .  A
C2856      C2857   1.396       .  A
C2856      H2865   1.084       .  S
C2857      C2858   1.401       .  A
C2857      H2866   1.084       .  S
C2858      C2861   1.432       .  S
C2858      C2859   1.400       .  A
C2859      C2860   1.396       .  A
C2859      H2867   1.084       .  S
C2860      H2868   1.084       .  S
C2861      C2862   1.201       .  T
C2863      C2864   1.201       .  T
C2869      C2877   1.434       .  S
C2869      C2870   1.401       .  A
C2869      C2874   1.400       .  A
C2870      C2871   1.397       .  A
C2870      H2879   1.084       .  S
C2871      C2872   1.400       .  A
C2871      H2880   1.083       .  S
C2872      C2875   1.435       .  S
C2872      C2873   1.401       .  A
C2873      C2874   1.397       .  A
C2873      H2881   1.083       .  S
C2874      H2882   1.083       .  S
C2875      C2876   1.203       .  T
C2877      C2878   1.202       .  T
C2883      C2891   1.441       .  S
C2883      C2884   1.401       .  A
C2883      C2888   1.402       .  A
C2884      C2885   1.399   1_655  A
C2884      H2893   1.083       .  S
C2885      C2886   1.402       .  A
C2885      H2894   1.083       .  S
C2886      C2889   1.442       .  S
C2886      C2887   1.402       .  A
C2887      C2888   1.400   1_455  A
C2887      H2895   1.083       .  S
C2888      H2896   1.084       .  S
C2889      C2890   1.207       .  T
C2891      C2892   1.207       .  T
C2897      C2905   1.444       .  S
C2897      C2898   1.402       .  A
C2897      C2902   1.402       .  A
C2898      C2899   1.401       .  A
C2898      H2907   1.083       .  S
C2899      C2900   1.402       .  A
C2899      H2908   1.083       .  S
C2900      C2903   1.444       .  S
C2900      C2901   1.402       .  A
C2901      C2902   1.400       .  A
C2901      H2909   1.083       .  S
C2902      H2910   1.083       .  S
C2903      C2904   1.208       .  T
C2905      C2906   1.208       .  T
C2911      C2919   1.437       .  S
C2911      C2912   1.400       .  A
C2911      C2916   1.401       .  A
C2912      C2913   1.397   1_455  A
C2912      H2921   1.083       .  S
C2913      C2914   1.400       .  A
C2913      H2922   1.083       .  S
C2914      C2917   1.437       .  S
C2914      C2915   1.401       .  A
C2915      C2916   1.399   1_655  A
C2915      H2923   1.083       .  S
C2916      H2924   1.084       .  S
C2917      C2918   1.204       .  T
C2919      C2920   1.204       .  T
C2925      C2933   1.443       .  S
C2925      C2926   1.402       .  A
C2925      C2930   1.401       .  A
C2926      C2927   1.401       .  A
C2926      H2935   1.083       .  S
C2927      C2928   1.402       .  A
C2927      H2936   1.083       .  S
C2928      C2931   1.442       .  S
C2928      C2929   1.402       .  A
C2929      C2930   1.400       .  A
C2929      H2937   1.083       .  S
C2930      H2938   1.083       .  S
C2931      C2932   1.207       .  T
C2933      C2934   1.208       .  T
C2939      C2947   1.441       .  S
C2939      C2940   1.402       .  A
C2939      C2944   1.402       .  A
C2940      C2941   1.399       .  A
C2940      H2949   1.083       .  S
C2941      C2942   1.401       .  A
C2941      H2950   1.084       .  S
C2942      C2945   1.439       .  S
C2942      C2943   1.401       .  A
C2943      C2944   1.399       .  A
C2943      H2951   1.084       .  S
C2944      H2952   1.083       .  S
C2945      C2946   1.205       .  T
C2947      C2948   1.207       .  T
C2953      C2961   1.436       .  S
C2953      C2954   1.400       .  A
C2953      C2958   1.401       .  A
C2954      C2955   1.397       .  A
C2954      H2963   1.083       .  S
C2955      C2956   1.400       .  A
C2955      H2964   1.084       .  S
C2956      C2959   1.435       .  S
C2956      C2957   1.401       .  A
C2957      C2958   1.398       .  A
C2957      H2965   1.084       .  S
C2958      H2966   1.083       .  S
C2959      C2960   1.203       .  T
C2961      C2962   1.203       .  T
C2967      C2975   1.433       .  S
C2967      C2968   1.401       .  A
C2967      C2972   1.400       .  A
C2968      C2969   1.397       .  A
C2968      H2977   1.084       .  S
C2969      C2970   1.400       .  A
C2969      H2978   1.083       .  S
C2970      C2973   1.433       .  S
C2970      C2971   1.400       .  A
C2971      C2972   1.396       .  A
C2971      H2979   1.084       .  S
C2972      H2980   1.084       .  S
C2973      C2974   1.202       .  T
C2975      C2976   1.202       .  T
C2981      C2989   1.442       .  S
C2981      C2982   1.402       .  A
C2981      C2986   1.402       .  A
C2982      C2983   1.399   1_455  A
C2982      H2991   1.083       .  S
C2983      C2984   1.400       .  A
C2983      H2992   1.083       .  S
C2984      C2987   1.441       .  S
C2984      C2985   1.403       .  A
C2985      C2986   1.401   1_655  A
C2985      H2993   1.083   1_565  S
C2986      H2994   1.083   1_565  S
C2987      C2988   1.207       .  T
C2989      C2990   1.207       .  T
C2995      C3003   1.443       .  S
C2995      C2996   1.402       .  A
C2995      C3000   1.401       .  A
C2996      C2997   1.400       .  A
C2996      H3005   1.083       .  S
C2997      C2998   1.402       .  A
C2997      H3006   1.083       .  S
C2998      C3001   1.443       .  S
C2998      C2999   1.402       .  A
C2999      C3000   1.400       .  A
C2999      H3007   1.083       .  S
C3000      H3008   1.083       .  S
C3001      C3002   1.208       .  T
C3003      C3004   1.208       .  T
C3009      C3017   1.445       .  S
C3009      C3010   1.403       .  A
C3009      C3014   1.402       .  A
C3010      C3011   1.403       .  A
C3010      H3019   1.083       .  S
C3011      C3012   1.403       .  A
C3011      H3020   1.083       .  S
C3012      C3015   1.446       .  S
C3012      C3013   1.402       .  A
C3013      C3014   1.399       .  A
C3013      H3021   1.084       .  S
C3014      H3022   1.084       .  S
C3015      C3016   1.210       .  T
C3017      C3018   1.209       .  T
C3023      C3031   1.438       .  S
C3023      C3024   1.402       .  A
C3023      C3028   1.400       .  A
C3024      C3025   1.398       .  A
C3024      H3033   1.084       .  S
C3025      C3026   1.400       .  A
C3025      H3034   1.083       .  S
C3026      C3029   1.440       .  S
C3026      C3027   1.403       .  A
C3027      C3028   1.399       .  A
C3027      H3035   1.084       .  S
C3028      H3036   1.083       .  S
C3029      C3030   1.206       .  T
C3031      C3032   1.205       .  T
C3037      C3045   1.441       .  S
C3037      C3038   1.402       .  A
C3037      C3042   1.401       .  A
C3038      C3039   1.399       .  A
C3038      H3047   1.083       .  S
C3039      C3040   1.401       .  A
C3039      H3048   1.084       .  S
C3040      C3043   1.440       .  S
C3040      C3041   1.401       .  A
C3041      C3042   1.399       .  A
C3041      H3049   1.083       .  S
C3042      H3050   1.083       .  S
C3043      C3044   1.206       .  T
C3045      C3046   1.207       .  T
C3051      C3059   1.437       .  S
C3051      C3052   1.402       .  A
C3051      C3056   1.399       .  A
C3052      C3053   1.398       .  A
C3052      H3061   1.084       .  S
C3053      C3054   1.399       .  A
C3053      H3062   1.083       .  S
C3054      C3057   1.437       .  S
C3054      C3055   1.402       .  A
C3055      C3056   1.398       .  A
C3055      H3063   1.084       .  S
C3056      H3064   1.083       .  S
C3057      C3058   1.204       .  T
C3059      C3060   1.204       .  T
C3065      C3073   1.435       .  S
C3065      C3066   1.401   1_565  A
C3065      C3070   1.400   1_565  A
C3066      C3067   1.397       .  A
C3066      H3075   1.084   1_545  S
C3067      C3068   1.400       .  A
C3067      H3076   1.083       .  S
C3068      C3071   1.435       .  S
C3068      C3069   1.402       .  A
C3069      C3070   1.398       .  A
C3069      H3077   1.084       .  S
C3070      H3078   1.083       .  S
C3071      C3072   1.203       .  T
C3073      C3074   1.203       .  T
C3079      C3087   1.442       .  S
C3079      C3080   1.401       .  A
C3079      C3084   1.402       .  A
C3080      C3081   1.400       .  A
C3080      H3089   1.083       .  S
C3081      C3082   1.402       .  A
C3081      H3090   1.083       .  S
C3082      C3085   1.442       .  S
C3082      C3083   1.401       .  A
C3083      C3084   1.400       .  A
C3083      H3091   1.083       .  S
C3084      H3092   1.083       .  S
C3085      C3086   1.207       .  T
C3087      C3088   1.207       .  T
C3093      C3101   1.443       .  S
C3093      C3094   1.402       .  A
C3093      C3098   1.402       .  A
C3094      C3095   1.400   1_554  A
C3094      H3103   1.083       .  S
C3095      C3096   1.402       .  A
C3095      H3104   1.083       .  S
C3096      C3099   1.442       .  S
C3096      C3097   1.402       .  A
C3097      C3098   1.400   1_556  A
C3097      H3105   1.083       .  S
C3098      H3106   1.083       .  S
C3099      C3100   1.208       .  T
C3101      C3102   1.208       .  T
C3107      C3115   1.439       .  S
C3107      C3108   1.400       .  A
C3107      C3112   1.402       .  A
C3108      C3109   1.398       .  A
C3108      H3117   1.083       .  S
C3109      C3110   1.402       .  A
C3109      H3118   1.084       .  S
C3110      C3113   1.438       .  S
C3110      C3111   1.400       .  A
C3111      C3112   1.399       .  A
C3111      H3119   1.083       .  S
C3112      H3120   1.083       .  S
C3113      C3114   1.205       .  T
C3115      C3116   1.205       .  T
C3121      C3129   1.439       .  S
C3121      C3122   1.401       .  A
C3121      C3126   1.401       .  A
C3122      C3123   1.398       .  A
C3122      H3131   1.083       .  S
C3123      C3124   1.401       .  A
C3123      H3132   1.083       .  S
C3124      C3127   1.438       .  S
C3124      C3125   1.401       .  A
C3125      C3126   1.398       .  A
C3125      H3133   1.084       .  S
C3126      H3134   1.083       .  S
C3127      C3128   1.204       .  T
C3129      C3130   1.205       .  T
C3135      C3143   1.445       .  S
C3135      C3136   1.402       .  A
C3135      C3140   1.402       .  A
C3136      C3137   1.402   1_554  A
C3136      H3145   1.083       .  S
C3137      C3138   1.403       .  A
C3137      H3146   1.083       .  S
C3138      C3141   1.446       .  S
C3138      C3139   1.402       .  A
C3139      C3140   1.400   1_556  A
C3139      H3147   1.083       .  S
C3140      H3148   1.083       .  S
C3141      C3142   1.210       .  T
C3143      C3144   1.209       .  T
C3149      C3157   1.438       .  S
C3149      C3150   1.402       .  A
C3149      C3154   1.400       .  A
C3150      C3151   1.399       .  A
C3150      H3159   1.084       .  S
C3151      C3152   1.400       .  A
C3151      H3160   1.083       .  S
C3152      C3155   1.437       .  S
C3152      C3153   1.401       .  A
C3153      C3154   1.398       .  A
C3153      H3161   1.084       .  S
C3154      H3162   1.083       .  S
C3155      C3156   1.204   1_565  T
C3157      C3158   1.205       .  T
C3163      C3171   1.436       .  S
C3163      C3164   1.401       .  A
C3163      C3168   1.400       .  A
C3164      C3165   1.397       .  A
C3164      H3173   1.084       .  S
C3165      C3166   1.400       .  A
C3165      H3174   1.083       .  S
C3166      C3169   1.436       .  S
C3166      C3167   1.401       .  A
C3167      C3168   1.398       .  A
C3167      H3175   1.084       .  S
C3168      H3176   1.083       .  S
C3169      C3170   1.203       .  T
C3171      C3172   1.203       .  T
C3177      C3185   1.439       .  S
C3177      C3178   1.402       .  A
C3177      C3182   1.401       .  A
C3178      C3179   1.399       .  A
C3178      H3187   1.084       .  S
C3179      C3180   1.401       .  A
C3179      H3188   1.083       .  S
C3180      C3183   1.440       .  S
C3180      C3181   1.402       .  A
C3181      C3182   1.399       .  A
C3181      H3189   1.083       .  S
C3182      H3190   1.083       .  S
C3183      C3184   1.206       .  T
C3185      C3186   1.205       .  T
C3191      C3199   1.442       .  S
C3191      C3192   1.401       .  A
C3191      C3196   1.402       .  A
C3192      C3193   1.401       .  A
C3192      H3201   1.083       .  S
C3193      C3194   1.403       .  A
C3193      H3202   1.083       .  S
C3194      C3197   1.444       .  S
C3194      C3195   1.401       .  A
C3195      C3196   1.400       .  A
C3195      H3203   1.083       .  S
C3196      H3204   1.084       .  S
C3197      C3198   1.208       .  T
C3199      C3200   1.207       .  T
C3205      C3213   1.444       .  S
C3205      C3206   1.402       .  A
C3205      C3210   1.402       .  A
C3206      C3207   1.402       .  A
C3206      H3215   1.083       .  S
C3207      C3208   1.403       .  A
C3207      H3216   1.083       .  S
C3208      C3211   1.445       .  S
C3208      C3209   1.402       .  A
C3209      C3210   1.400       .  A
C3209      H3217   1.083       .  S
C3210      H3218   1.083       .  S
C3211      C3212   1.209       .  T
C3213      C3214   1.208       .  T
C3219      C3227   1.441       .  S
C3219      C3220   1.402       .  A
C3219      C3224   1.402       .  A
C3220      C3221   1.399       .  A
C3220      H3229   1.084       .  S
C3221      C3222   1.401       .  A
C3221      H3230   1.083       .  S
C3222      C3225   1.442       .  S
C3222      C3223   1.402       .  A
C3223      C3224   1.400       .  A
C3223      H3231   1.083       .  S
C3224      H3232   1.083       .  S
C3225      C3226   1.207       .  T
C3227      C3228   1.207       .  T
C3233      C3241   1.438       .  S
C3233      C3234   1.400       .  A
C3233      C3238   1.402       .  A
C3234      C3235   1.398       .  A
C3234      H3243   1.083       .  S
C3235      C3236   1.401       .  A
C3235      H3244   1.084       .  S
C3236      C3239   1.438       .  S
C3236      C3237   1.401       .  A
C3237      C3238   1.399       .  A
C3237      H3245   1.083       .  S
C3238      H3246   1.083       .  S
C3239      C3240   1.205       .  T
C3241      C3242   1.205       .  T
C3247      C3255   1.443       .  S
C3247      C3248   1.402       .  A
C3247      C3252   1.401       .  A
C3248      C3249   1.402       .  A
C3248      H3257   1.083       .  S
C3249      C3250   1.403       .  A
C3249      H3258   1.083       .  S
C3250      C3253   1.444       .  S
C3250      C3251   1.401       .  A
C3251      C3252   1.398       .  A
C3251      H3259   1.084       .  S
C3252      H3260   1.084       .  S
C3253      C3254   1.208       .  T
C3255      C3256   1.208       .  T
C3261      C3269   1.438       .  S
C3261      C3262   1.401       .  A
C3261      C3266   1.401       .  A
C3262      C3263   1.398       .  A
C3262      H3271   1.083       .  S
C3263      C3264   1.401       .  A
C3263      H3272   1.084       .  S
C3264      C3267   1.436       .  S
C3264      C3265   1.401       .  A
C3265      C3266   1.398       .  A
C3265      H3273   1.084       .  S
C3266      H3274   1.083       .  S
C3267      C3268   1.203   1_565  T
C3269      C3270   1.204       .  T
C3275      C3283   1.438       .  S
C3275      C3276   1.402       .  A
C3275      C3280   1.401       .  A
C3276      C3277   1.399       .  A
C3276      H3285   1.083       .  S
C3277      C3278   1.401       .  A
C3277      H3286   1.083       .  S
C3278      C3281   1.439       .  S
C3278      C3279   1.401       .  A
C3279      C3280   1.398       .  A
C3279      H3287   1.084       .  S
C3280      H3288   1.083       .  S
C3281      C3282   1.205       .  T
C3283      C3284   1.205       .  T
C3289      C3297   1.440       .  S
C3289      C3290   1.402       .  A
C3289      C3294   1.401       .  A
C3290      C3291   1.399       .  A
C3290      H3299   1.084       .  S
C3291      C3292   1.401       .  A
C3291      H3300   1.084       .  S
C3292      C3295   1.438       .  S
C3292      C3293   1.401       .  A
C3293      C3294   1.399       .  A
C3293      H3301   1.083       .  S
C3294      H3302   1.083       .  S
C3295      C3296   1.205       .  T
C3297      C3298   1.206       .  T
C3303      C3311   1.438       .  S
C3303      C3304   1.401       .  A
C3303      C3308   1.401       .  A
C3304      C3305   1.399       .  A
C3304      H3313   1.084       .  S
C3305      C3306   1.401       .  A
C3305      H3314   1.083       .  S
C3306      C3309   1.438       .  S
C3306      C3307   1.401       .  A
C3307      C3308   1.398       .  A
C3307      H3315   1.084       .  S
C3308      H3316   1.083       .  S
C3309      C3310   1.205       .  T
C3311      C3312   1.205       .  T
C3317      C3325   1.442       .  S
C3317      C3318   1.401       .  A
C3317      C3322   1.402       .  A
C3318      C3319   1.399   1_554  A
C3318      H3327   1.084       .  S
C3319      C3320   1.401       .  A
C3319      H3328   1.084       .  S
C3320      C3323   1.443       .  S
C3320      C3321   1.402       .  A
C3321      C3322   1.401   1_556  A
C3321      H3329   1.083       .  S
C3322      H3330   1.083       .  S
C3323      C3324   1.208       .  T
C3325      C3326   1.207       .  T
C3331      C3339   1.440       .  S
C3331      C3332   1.401       .  A
C3331      C3336   1.402       .  A
C3332      C3333   1.399       .  A
C3332      H3341   1.083       .  S
C3333      C3334   1.402       .  A
C3333      H3342   1.084       .  S
C3334      C3337   1.440       .  S
C3334      C3335   1.401       .  A
C3335      C3336   1.399       .  A
C3335      H3343   1.083       .  S
C3336      H3344   1.083       .  S
C3337      C3338   1.206       .  T
C3339      C3340   1.206       .  T
C3345      C3353   1.438       .  S
C3345      C3346   1.401       .  A
C3345      C3350   1.401       .  A
C3346      C3347   1.398       .  A
C3346      H3355   1.083       .  S
C3347      C3348   1.401       .  A
C3347      H3356   1.084       .  S
C3348      C3351   1.437       .  S
C3348      C3349   1.401       .  A
C3349      C3350   1.398       .  A
C3349      H3357   1.083       .  S
C3350      H3358   1.083       .  S
C3351      C3352   1.204       .  T
C3353      C3354   1.205       .  T
C3359      C3367   1.440       .  S
C3359      C3360   1.402       .  A
C3359      C3364   1.401       .  A
C3360      C3361   1.399       .  A
C3360      H3369   1.083       .  S
C3361      C3362   1.401       .  A
C3361      H3370   1.084       .  S
C3362      C3365   1.438       .  S
C3362      C3363   1.401       .  A
C3363      C3364   1.399       .  A
C3363      H3371   1.084       .  S
C3364      H3372   1.083       .  S
C3365      C3366   1.205       .  T
C3367      C3368   1.206       .  T
C3373      C3381   1.446       .  S
C3373      C3374   1.402       .  A
C3373      C3378   1.403       .  A
C3374      C3375   1.399   1_554  A
C3374      H3383   1.083       .  S
C3375      C3376   1.401       .  A
C3375      H3384   1.083       .  S
C3376      C3379   1.445       .  S
C3376      C3377   1.403       .  A
C3377      C3378   1.403   1_556  A
C3377      H3385   1.083       .  S
C3378      H3386   1.083       .  S
C3379      C3380   1.209       .  T
C3381      C3382   1.209       .  T
C3387      C3395   1.435       .  S
C3387      C3388   1.401       .  A
C3387      C3392   1.400       .  A
C3388      C3389   1.397       .  A
C3388      H3397   1.084       .  S
C3389      C3390   1.399       .  A
C3389      H3398   1.083       .  S
C3390      C3393   1.436       .  S
C3390      C3391   1.402       .  A
C3391      C3392   1.398       .  A
C3391      H3399   1.084       .  S
C3392      H3400   1.083       .  S
C3393      C3394   1.203       .  T
C3395      C3396   1.203       .  T
C3401      C3409   1.437       .  S
C3401      C3402   1.399   1_565  A
C3401      C3406   1.402       .  A
C3402      C3403   1.398       .  A
C3402      H3411   1.083       .  S
C3403      C3404   1.403       .  A
C3403      H3412   1.084       .  S
C3404      C3407   1.438       .  S
C3404      C3405   1.399       .  A
C3405      C3406   1.398   1_545  A
C3405      H3413   1.083       .  S
C3406      H3414   1.084       .  S
C3407      C3408   1.205       .  T
C3409      C3410   1.204       .  T
C3415      C3423   1.442       .  S
C3415      C3416   1.402       .  A
C3415      C3420   1.402       .  A
C3416      C3417   1.400       .  A
C3416      H3425   1.083       .  S
C3417      C3418   1.401       .  A
C3417      H3426   1.083       .  S
C3418      C3421   1.442       .  S
C3418      C3419   1.402       .  A
C3419      C3420   1.401       .  A
C3419      H3427   1.083       .  S
C3420      H3428   1.083       .  S
C3421      C3422   1.207       .  T
C3423      C3424   1.207       .  T
C3429      C3437   1.439       .  S
C3429      C3430   1.401       .  A
C3429      C3434   1.401       .  A
C3430      C3431   1.398       .  A
C3430      H3439   1.084       .  S
C3431      C3432   1.400       .  A
C3431      H3440   1.083       .  S
C3432      C3435   1.440       .  S
C3432      C3433   1.402       .  A
C3433      C3434   1.399       .  A
C3433      H3441   1.083       .  S
C3434      H3442   1.083       .  S
C3435      C3436   1.206       .  T
C3437      C3438   1.205       .  T
C3443      C3451   1.441       .  S
C3443      C3444   1.402       .  A
C3443      C3448   1.401       .  A
C3444      C3445   1.399       .  A
C3444      H3453   1.083       .  S
C3445      C3446   1.401       .  A
C3445      H3454   1.084       .  S
C3446      C3449   1.439       .  S
C3446      C3447   1.401       .  A
C3447      C3448   1.399       .  A
C3447      H3455   1.084       .  S
C3448      H3456   1.083       .  S
C3449      C3450   1.205       .  T
C3451      C3452   1.207       .  T
