geometry optimzed in LAMMPS
_audit_creation_date              2020-12-01 
_audit_creation_method            'lammps2cif' 
_symmetry_space_group_name_H-M    'P1' 
_symmetry_Int_Tables_number       1 
_symmetry_cell_setting            triclinic 
loop_ 
_symmetry_equiv_pos_as_xyz 
  x,y,z 
_cell_length_a                    36.53155971 
_cell_length_b                    39.82538566438128 
_cell_length_c                    44.79445356158565 
_cell_angle_alpha                 89.82384722199059 
_cell_angle_beta                  94.12223734554775 
_cell_angle_gamma                 89.99761922336182 
loop_ 
_atom_site_label 
_atom_site_type_symbol 
_atom_site_fract_x 
_atom_site_fract_y 
_atom_site_fract_z 
_atom_site_charge 
Fe1        Fe  0.84180323  0.23858223  0.35458462     1.65800
Fe2        Fe  0.85383991  0.31199111  0.32119392     1.73200
Fe3        Fe  0.78019916  0.29988804  0.36096495     1.54400
O4          O  0.74939475  0.25902735  0.34593053    -0.82300
O5          O  0.83862869  0.35750462  0.34107960    -0.80600
O6          O  0.78947234  0.21869421  0.35879391    -0.84800
O7          O  0.84650641  0.24980674  0.39855822    -0.79700
O8          O  0.76469147  0.32523446  0.31995485    -0.81400
O9          O  0.89910001  0.30685158  0.35100872    -0.84200
C10         C  0.82260594  0.26245994  0.41436776     0.96600
C11         C  0.75679230  0.22867101  0.35232396     1.04000
O12         O  0.82482543  0.28365811  0.34563441    -1.13200
O13         O  0.86941468  0.27074381  0.29616328    -0.75600
O14         O  0.83570121  0.22799578  0.31032165    -0.79100
O15         O  0.79350879  0.27697553  0.40292687    -0.79800
C16         C  0.85021914  0.24452288  0.29016081     0.95500
O17         O  0.89745734  0.25123111  0.35255598    -0.77700
O18         O  0.81098235  0.31741847  0.29056642    -0.82900
C19         C  0.82045185  0.36416049  0.36361507     0.98100
C20         C  0.77884197  0.32729707  0.29452149     1.04000
O21         O  0.80647543  0.34122744  0.37853152    -0.78600
C22         C  0.91508129  0.27882562  0.35582206     1.02300
Fe23       Fe  0.64744505  0.48782499  0.13449242     1.65800
Fe24       Fe  0.63710467  0.41367580  0.16735182     1.73200
Fe25       Fe  0.70912699  0.42681635  0.12618960     1.54400
O26         O  0.69547034  0.45059944  0.08477293    -0.82300
O27         O  0.68073753  0.40891508  0.19700102    -0.80600
O28         O  0.64291545  0.47814627  0.08985933    -0.84800
O29         O  0.70011622  0.50793253  0.13112115    -0.79700
O30         O  0.68169099  0.38645188  0.10824697    -0.81400
O31         O  0.62103028  0.45407957  0.19342761    -0.84200
C32         C  0.73293974  0.49752200  0.13648145     0.96600
C33         C  0.66668585  0.46582208  0.07367890     1.04000
O34         O  0.66495662  0.44278752  0.14261727    -1.13200
O35         O  0.59105544  0.41834753  0.13863981    -0.75600
O36         O  0.59161303  0.47405712  0.13618105    -0.79100
O37         O  0.74045334  0.46691139  0.14136853    -0.79800
C38         C  0.57437409  0.44607576  0.13401442     0.95500
O39         O  0.65311441  0.49784126  0.17917047    -0.77700
O40         O  0.65273158  0.36850330  0.14667787    -0.82900
C41         C  0.71278453  0.39938324  0.19258180     0.98100
C42         C  0.66995286  0.36266455  0.12342768     1.04000
O43         O  0.72585474  0.40083932  0.16669193    -0.78600
C44         C  0.63817355  0.48147539  0.19927304     1.02300
Fe45       Fe  0.64905189  0.98765950  0.38572185     1.65800
Fe46       Fe  0.63836505  0.06250623  0.41640604     1.73200
Fe47       Fe  0.71232258  0.04704398  0.37767441     1.54400
O48         O  0.74028608  0.50731973  0.39298294    -0.82300
O49         O  0.65323115  0.10683419  0.39408820    -0.80600
O50         O  0.69952079  0.46854835  0.37834769    -0.84800
O51         O  0.64362523  0.99823351  0.34157722    -0.79700
O52         O  0.72914821  0.07225284  0.41818118    -0.81400
O53         O  0.59285681  0.05633436  0.38713553    -0.84200
C54         C  0.66710154  0.01073655  0.32516620     0.96600
C55         C  0.73244988  0.47770235  0.38471599     1.04000
O56         O  0.66702122  0.03271581  0.39320814    -1.13200
O57         O  0.62295920  0.02250242  0.44347325    -0.75600
O58         O  0.65545133  0.47866459  0.42917516    -0.79100
O59         O  0.69713395  0.02415936  0.33604307    -0.79800
C60         C  0.64097189  0.99563158  0.44999381     0.95500
O61         O  0.59374193  0.00084324  0.38838305    -0.77700
O62         O  0.68130466  0.06939702  0.44666261    -0.82900
C63         C  0.67267371  0.11255105  0.37203574     0.98100
C64         C  0.71435607  0.07672252  0.44306365     1.04000
O65         O  0.68884288  0.08922797  0.35934865    -0.78600
C66         C  0.57635859  0.02840299  0.38402969     1.02300
Fe67       Fe  0.84296440  0.23676662  0.10411099     1.65800
Fe68       Fe  0.85365920  0.16102082  0.07492251     1.73200
Fe69       Fe  0.77966794  0.17728393  0.11314982     1.54400
O70         O  0.79433916  0.20140271  0.15425119    -0.82300
O71         O  0.81116791  0.15381826  0.04453993    -0.80600
O72         O  0.84743671  0.22801291  0.14843191    -0.84800
O73         O  0.79117753  0.25816470  0.10768248    -0.79700
O74         O  0.80377597  0.13579065  0.13236618    -0.81400
O75         O  0.86955202  0.20033173  0.04725206    -0.84200
C76         C  0.75821060  0.24856974  0.10215435     0.96600
C77         C  0.82392190  0.21584187  0.16486773     1.04000
O78         O  0.82490987  0.19150355  0.09741236    -1.13200
O79         O  0.89867049  0.16756820  0.10462267    -0.75600
O80         O  0.89857184  0.22310246  0.10276090    -0.79100
O81         O  0.75015514  0.21822767  0.09672071    -0.79800
C82         C  0.91548405  0.19538842  0.10778750     0.95500
O83         O  0.83713887  0.24480271  0.05943990    -0.77700
O84         O  0.83785836  0.11694418  0.09728726    -0.82900
C85         C  0.77819802  0.14624676  0.04812442     0.98100
C86         C  0.81798347  0.11173095  0.11914274     1.04000
O87         O  0.76324013  0.15094719  0.07293349    -0.78600
C88         C  0.85182151  0.22719192  0.04011441     1.02300
Fe89       Fe  0.14431807  0.22904291  0.38999288     1.65800
Fe90       Fe  0.13544973  0.30506216  0.41918279     1.73200
Fe91       Fe  0.20949476  0.28685725  0.38199358     1.54400
O92         O  0.23748617  0.24561013  0.39899678    -0.82300
O93         O  0.15350805  0.34875523  0.39745273    -0.80600
O94         O  0.19574993  0.20634862  0.38758100    -0.84800
O95         O  0.14139531  0.23767215  0.34566045    -0.79700
O96         O  0.22562299  0.31294931  0.42228382    -0.81400
O97         O  0.09087959  0.30031777  0.38876908    -0.84200
C98         C  0.16619216  0.24854491  0.32975724     0.96600
C99         C  0.22886124  0.21542432  0.39352267     1.04000
O100        O  0.16355820  0.27378374  0.39697540    -1.13200
O101        O  0.11691935  0.26605188  0.44558678    -0.75600
O102        O  0.14862458  0.22091418  0.43466357    -0.79100
O103        O  0.19564624  0.26261504  0.34094498    -0.79800
C104        C  0.13430904  0.23933007  0.45359743     0.95500
O105        O  0.08925323  0.24468982  0.39027987    -0.77700
O106        O  0.17754924  0.31018106  0.45045055    -0.82900
C107        C  0.17297583  0.35311522  0.37521752     0.98100
C108        C  0.21066506  0.31743090  0.44710970     1.04000
O109        O  0.18644722  0.32846599  0.36229020    -0.78600
C110        C  0.07332568  0.27291023  0.38524537     1.02300
Fe111      Fe  0.34194675  0.48108536  0.10420052     1.65800
Fe112      Fe  0.35341998  0.40364350  0.07883984     1.73200
Fe113      Fe  0.27829024  0.42240419  0.11524439     1.54400
O114        O  0.29374695  0.44737081  0.15572513    -0.82300
O115        O  0.31097057  0.39408080  0.04856120    -0.80600
O116        O  0.34650036  0.47475167  0.14888949    -0.84800
O117        O  0.29048739  0.50311627  0.10774105    -0.79700
O118        O  0.30065765  0.38077265  0.13526024    -0.81400
O119        O  0.36886628  0.44146922  0.04982211    -0.84200
C120        C  0.25737953  0.49359045  0.10341184     0.96600
C121        C  0.32247085  0.46371805  0.16551086     1.04000
O122        O  0.32408467  0.43537989  0.09964629    -1.13200
O123        O  0.39860891  0.41237066  0.10814482    -0.75600
O124        O  0.39751572  0.46762739  0.10295046    -0.79100
O125        O  0.24912844  0.46325883  0.09836825    -0.79800
C126        C  0.41497819  0.44052453  0.10942968     0.95500
O127        O  0.33564132  0.48631291  0.05907233    -0.77700
O128        O  0.33871001  0.36098406  0.10332752    -0.82900
C129        C  0.27716148  0.38907776  0.05122431     0.98100
C130        C  0.31782319  0.35670917  0.12464306     1.04000
O131        O  0.26147368  0.39584592  0.07532288    -0.78600
C132        C  0.35016387  0.46708158  0.04078289     1.02300
Fe133      Fe  0.14760475  0.23138060  0.14081100     1.65800
Fe134      Fe  0.13572224  0.15538621  0.16951143     1.73200
Fe135      Fe  0.20956957  0.17105315  0.13093774     1.54400
O136        O  0.19579875  0.19678783  0.09021145    -0.82300
O137        O  0.17828294  0.14778640  0.19994204    -0.80600
O138        O  0.14306914  0.22403808  0.09630154    -0.84800
O139        O  0.19988169  0.25189253  0.13794054    -0.79700
O140        O  0.18409064  0.13061373  0.11117820    -0.81400
O141        O  0.12004371  0.19451222  0.19704764    -0.84200
C142        C  0.23261138  0.24157123  0.14346939     0.96600
C143        C  0.16721885  0.21304752  0.07987370     1.04000
O144        O  0.16472567  0.18575512  0.14693592    -1.13200
O145        O  0.09067009  0.16279130  0.14004459    -0.75600
O146        O  0.09172617  0.21834996  0.14200879    -0.79100
O147        O  0.24010518  0.21089617  0.14789270    -0.79800
C148        C  0.07423749  0.19085566  0.13730550     0.95500
O149        O  0.15382504  0.23841092  0.18547234    -0.77700
O150        O  0.15097354  0.11140352  0.14688542    -0.82900
C151        C  0.21099704  0.13954528  0.19614244     0.98100
C152        C  0.16971127  0.10649717  0.12429778     1.04000
O153        O  0.22550021  0.14363102  0.17098787    -0.78600
C154        C  0.13866691  0.22069030  0.20446828     1.02300
Fe155      Fe  0.34542555  0.97948347  0.35539134     1.65800
Fe156      Fe  0.35429103  0.05532447  0.32568732     1.73200
Fe157      Fe  0.28197644  0.03811240  0.36519032     1.54400
O158        O  0.25102884  0.49859232  0.34824777    -0.82300
O159        O  0.33724570  0.09908026  0.34789554    -0.80600
O160        O  0.29264674  0.45840781  0.35711614    -0.84800
O161        O  0.35037955  0.98797775  0.39996813    -0.79700
O162        O  0.26499685  0.06583994  0.32533947    -0.81400
O163        O  0.39990030  0.04987492  0.35494505    -0.84200
C164        C  0.32579564  0.99803233  0.41645956     0.96600
C165        C  0.25949145  0.46804696  0.35244169     1.04000
O166        O  0.32665838  0.02429983  0.34865197    -1.13200
O167        O  0.37134270  0.01620540  0.29869878    -0.75600
O168        O  0.33896885  0.47310053  0.30941956    -0.79100
O169        O  0.29627795  0.01247717  0.40574708    -0.79800
C170        C  0.35368156  0.98944812  0.29120950     0.95500
O171        O  0.40050988  0.99434247  0.35340603    -0.77700
O172        O  0.31118379  0.06100340  0.29548656    -0.82900
C173        C  0.31934858  0.10302827  0.37109158     0.98100
C174        C  0.27877451  0.06973406  0.29983980     1.04000
O175        O  0.30812821  0.07800091  0.38493280    -0.78600
C176        C  0.41725819  0.02224312  0.35760834     1.02300
C177        C  0.26806696  0.07783429  0.24469838    -0.26900
C178        C  0.25862120  0.08647026  0.27377591    -0.15000
C179        C  0.23521474  0.11414227  0.27709133     0.35600
C180        C  0.22138642  0.13192055  0.25143973    -0.26400
C181        C  0.23086147  0.12315913  0.22243564    -0.15600
C182        C  0.25448681  0.09585844  0.21924557     0.36700
N183        N  0.26403272  0.08583309  0.19014400    -0.89900
H184        H  0.28643869  0.05693683  0.24165121     0.17800
H185        H  0.20301896  0.15290512  0.25411628     0.17800
N186        N  0.22630837  0.12470204  0.30636597    -0.88900
H187        H  0.25686563  0.06059449  0.18708696     0.35200
H188        H  0.29242604  0.08796521  0.18954605     0.40300
H189        H  0.20850439  0.14530245  0.30482583     0.39900
H190        H  0.25052592  0.13309130  0.31778226     0.34800
C191        C  0.30814302  0.29554569  0.11522854    -0.26900
C192        C  0.30818887  0.32256639  0.13533571    -0.15000
C193        C  0.28911857  0.31894112  0.16170276     0.35600
C194        C  0.26598842  0.29113959  0.16484671    -0.26400
C195        C  0.26278471  0.26617842  0.14297497    -0.15600
C196        C  0.28547598  0.26735088  0.11877077     0.36700
N197        N  0.28353306  0.24104036  0.09680636    -0.89900
H198        H  0.32277922  0.29785698  0.09512897     0.17800
H199        H  0.24913437  0.28966512  0.18376151     0.17800
N200        N  0.29137398  0.34467505  0.18422626    -0.88900
H201        H  0.30216110  0.24550623  0.08057905     0.35200
H202        H  0.25736156  0.24175532  0.08572392     0.40300
H203        H  0.31856860  0.34557972  0.19321143     0.39900
H204        H  0.27530446  0.33847761  0.20183977     0.34800
C205        C  0.18618451  0.04708824  0.13700385    -0.26900
C206        C  0.18028067  0.07209625  0.11498537    -0.15000
C207        C  0.19418445  0.06685395  0.08655536     0.35600
C208        C  0.21794060  0.03967498  0.08234333    -0.26400
C209        C  0.22667645  0.01678686  0.10546484    -0.15600
C210        C  0.20912285  0.01946540  0.13235248     0.36700
N211        N  0.21824849  0.49731101  0.15715594    -0.89900
H212        H  0.17573519  0.05040448  0.15883836     0.17800
H213        H  0.23069508  0.03701944  0.06136905     0.17800
N214        N  0.18561620  0.09017626  0.06254172    -0.88900
H215        H  0.20310415  0.50277808  0.17548079     0.35200
H216        H  0.24587679  0.49997156  0.16457044     0.40300
H217        H  0.15731594  0.08895274  0.05720535     0.39900
H218        H  0.19825854  0.08305117  0.04332240     0.34800
C219        C  0.32524085  0.44515297  0.21843190    -0.26900
C220        C  0.32899632  0.47079850  0.19749102    -0.15000
C221        C  0.34296152  0.50228984  0.20697950     0.35600
C222        C  0.35429725  0.00516361  0.23785828    -0.26400
C223        C  0.34836767  0.48246544  0.25849401    -0.15600
C224        C  0.33518708  0.45056356  0.24884089     0.36700
N225        N  0.33228129  0.42346739  0.26963848    -0.89900
H226        H  0.31557037  0.42058593  0.21108505     0.17800
H227        H  0.36577586  0.02926662  0.24469183     0.17800
N228        N  0.35140849  0.02603949  0.18651349    -0.88900
H229        H  0.34868534  0.40370802  0.26302133     0.35200
H230        H  0.30505872  0.41520310  0.26812270     0.40300
H231        H  0.37957407  0.03114963  0.18800550     0.39900
H232        H  0.33786742  0.04761611  0.19291890     0.34800
C233        C  0.32823004  0.50555754  0.99952059    -0.26900
C234        C  0.34439407  0.47463688  0.00843998    -0.15000
C235        C  0.36340459  0.45690379  0.48671782     0.35600
C236        C  0.35452336  0.46422618  0.45662972    -0.26400
C237        C  0.33240938  0.99164359  0.44910395    -0.15600
C238        C  0.30894252  0.00365409  0.47031061     0.36700
N239        N  0.27723586  0.02336378  0.46129243    -0.89900
H240        H  0.32246332  0.52429904  0.01602937     0.17800
H241        H  0.36552116  0.44812173  0.43997566     0.17800
N242        N  0.36595587  0.41796260  0.99448270    -0.88900
H243        H  0.27949653  0.04640184  0.47240491     0.35200
H244        H  0.25410255  0.01095605  0.46828213     0.40300
H245        H  0.39351027  0.42146697  0.00179383     0.39900
H246        H  0.37484228  0.40731693  0.48488049     0.34800
C247        C  0.26777366  0.37868316  0.49548150    -0.26900
C248        C  0.25701819  0.37359812  0.02472300    -0.15000
C249        C  0.23123438  0.34772090  0.02748042     0.35600
C250        C  0.22013597  0.32524446  0.50221656    -0.26400
C251        C  0.23047122  0.33357743  0.47331769    -0.15600
C252        C  0.25455776  0.36070391  0.46999486     0.36700
N253        N  0.26481845  0.37050535  0.44081538    -0.89900
H254        H  0.28801586  0.40159784  0.99377978     0.17800
H255        H  0.20131337  0.30462447  0.50510761     0.17800
N256        N  0.21982438  0.33836066  0.05642170    -0.88900
H257        H  0.28330815  0.39057276  0.44239739     0.35200
H258        H  0.24123803  0.37938828  0.42870244     0.40300
H259        H  0.24265779  0.32840119  0.06882283     0.39900
H260        H  0.20025587  0.31918013  0.05445155     0.34800
C261        C  0.16367037  0.20329152  0.49399966    -0.26900
C262        C  0.13950744  0.22984840  0.48553778    -0.15000
C263        C  0.13101668  0.25722998  0.00942149     0.35600
C264        C  0.14098736  0.24974584  0.03935275    -0.26400
C265        C  0.16091334  0.22057501  0.04765636    -0.15600
C266        C  0.17136354  0.19850921  0.02532683     0.36700
N267        N  0.19096994  0.16814215  0.03328187    -0.89900
H268        H  0.17607152  0.18871571  0.47701307     0.17800
H269        H  0.13291172  0.26706756  0.05631167     0.17800
N270        N  0.09870812  0.27549817  0.50050999    -0.88900
H271        H  0.19683367  0.15480373  0.01413118     0.35200
H272        H  0.17336426  0.15303514  0.04487141     0.40300
H273        H  0.10957725  0.29754973  0.51017000     0.39900
H274        H  0.08649058  0.28663639  0.01304712     0.34800
C275        C  0.17953011  0.24067016  0.24679631    -0.26900
C276        C  0.14430329  0.23029144  0.23593689    -0.15000
C277        C  0.11610062  0.22766276  0.25543097     0.35600
C278        C  0.12393287  0.23465536  0.28577071    -0.26400
C279        C  0.15957024  0.24387581  0.29710853    -0.15600
C280        C  0.18751880  0.24718323  0.27723281     0.36700
N281        N  0.22417548  0.25605155  0.28780651    -0.89900
H282        H  0.20140025  0.24249609  0.23173301     0.17800
H283        H  0.10191954  0.23258038  0.30063398     0.17800
N284        N  0.07970774  0.21801698  0.24433869    -0.88900
H285        H  0.23152077  0.27780721  0.27655793     0.35200
H286        H  0.24173034  0.23670902  0.28214409     0.40300
H287        H  0.06959458  0.23680855  0.22963609     0.39900
H288        H  0.06212446  0.21706792  0.26175463     0.34800
C289        C  0.20386883  0.38900016  0.33903362    -0.26900
C290        C  0.18466334  0.38713036  0.36526831    -0.15000
C291        C  0.18512552  0.41551484  0.38424694     0.35600
C292        C  0.20765000  0.44322287  0.37817210    -0.26400
C293        C  0.22998866  0.44283919  0.35389932    -0.15600
C294        C  0.22706666  0.41605714  0.33370893     0.36700
N295        N  0.24886823  0.41560078  0.30839999    -0.89900
H296        H  0.20343796  0.36800486  0.32367876     0.17800
H297        H  0.20980259  0.46413303  0.39362663     0.17800
N298        N  0.16503930  0.41523289  0.41066944    -0.88900
H299        H  0.23117266  0.41367447  0.28907523     0.35200
H300        H  0.26527139  0.39406016  0.30991159     0.40300
H301        H  0.13711801  0.41466631  0.40368536     0.39900
H302        H  0.16944031  0.43749403  0.42271247     0.34800
C303        C  0.28027529  0.19137316  0.36725869    -0.26900
C304        C  0.25841145  0.19038885  0.39179249    -0.15000
C305        C  0.26299965  0.16413194  0.41265474     0.35600
C306        C  0.28732325  0.13783757  0.40730873    -0.26400
C307        C  0.30625002  0.13656363  0.38085527    -0.15600
C308        C  0.30419427  0.16471460  0.36150161     0.36700
N309        N  0.32427929  0.16521312  0.33508168    -0.89900
H310        H  0.27698380  0.21208045  0.35153393     0.17800
H311        H  0.28925635  0.11692896  0.42287577     0.17800
N312        N  0.24175758  0.16357225  0.43846155    -0.88900
H313        H  0.35219332  0.16589720  0.34207381     0.35200
H314        H  0.31869134  0.18719852  0.32276441     0.40300
H315        H  0.24960068  0.18431670  0.45166807     0.39900
H316        H  0.24799699  0.14224276  0.45152061     0.34800
C317        C  0.97441750  0.16412730  0.11861169    -0.26900
C318        C  0.95597291  0.19512066  0.11614279    -0.15000
C319        C  0.97689023  0.22481141  0.12080009     0.35600
C320        C  0.01514312  0.22285177  0.12744432    -0.26400
C321        C  0.03359685  0.19177250  0.12959785    -0.15600
C322        C  0.01254405  0.16214333  0.12515177     0.36700
N323        N  0.02953374  0.12972277  0.12716618    -0.89900
H324        H  0.95925883  0.14091589  0.11517185     0.17800
H325        H  0.03041042  0.24599740  0.13095740     0.17800
N326        N  0.95964219  0.25712068  0.11886953    -0.88900
H327        H  0.02393951  0.11743397  0.10675222     0.35200
H328        H  0.01747396  0.11595467  0.14378069     0.40300
H329        H  0.97170525  0.27106603  0.10237145     0.39900
H330        H  0.96506346  0.26932372  0.13934960     0.34800
C331        C  0.51839065  0.99619043  0.37172005    -0.26900
C332        C  0.53580598  0.02741581  0.37643390    -0.15000
C333        C  0.51387411  0.05669899  0.37474287     0.35600
C334        C  0.47564581  0.05414689  0.36891138    -0.26400
C335        C  0.45806781  0.02289161  0.36444683    -0.15600
C336        C  0.48031365  0.99353363  0.36570426     0.36700
N337        N  0.46551745  0.96052949  0.36086862    -0.89900
H338        H  0.53447871  0.97330304  0.37271411     0.17800
H339        H  0.45968527  0.07710213  0.36786261     0.17800
N340        N  0.53003462  0.08924580  0.37909584    -0.88900
H341        H  0.45236315  0.95937165  0.33937397     0.35200
H342        H  0.44682902  0.95555803  0.37690520     0.40300
H343        H  0.51817262  0.10071457  0.39702381     0.39900
H344        H  0.52345278  0.10358947  0.35987022     0.34800
C345        C  0.72528550  0.08349990  0.49810648    -0.26900
C346        C  0.73426865  0.09298241  0.46913656    -0.15000
C347        C  0.75633518  0.12148385  0.46572525     0.35600
C348        C  0.76864585  0.13990112  0.49118911    -0.26400
C349        C  0.75862019  0.12995320  0.02190388    -0.15600
C350        C  0.73780488  0.10054215  0.02480256     0.36700
N351        N  0.73025601  0.08819993  0.05392658    -0.89900
H352        H  0.70794480  0.06175640  0.50076846     0.17800
H353        H  0.78577986  0.16173198  0.48831735     0.17800
N354        N  0.76550419  0.13214235  0.43647699    -0.88900
H355        H  0.71633034  0.06526576  0.05218252     0.35200
H356        H  0.71239998  0.10520432  0.06307507     0.40300
H357        H  0.74122104  0.13962516  0.42457128     0.39900
H358        H  0.78246780  0.15331279  0.43796286     0.34800
C359        C  0.47511773  0.47116901  0.10982360    -0.26900
C360        C  0.45559074  0.44204788  0.11694533    -0.15000
C361        C  0.47550202  0.41470125  0.13005318     0.35600
C362        C  0.51389133  0.41663459  0.13506231    -0.26400
C363        C  0.53355771  0.44548357  0.12748207    -0.15600
C364        C  0.51368160  0.47314556  0.11471080     0.36700
N365        N  0.53258300  0.50297112  0.10623336    -0.89900
H366        H  0.46034234  0.49235955  0.09965830     0.17800
H367        H  0.52832968  0.39531423  0.14534848     0.17800
N368        N  0.45694807  0.38494921  0.13879118    -0.88900
H369        H  0.51395519  0.52113701  0.09770319     0.35200
H370        H  0.54869814  0.49654148  0.08874329     0.40300
H371        H  0.46295103  0.38126654  0.16174424     0.39900
H372        H  0.46752460  0.36457831  0.12751330     0.34800
C373        C  0.71148786  0.27571477  0.13153411    -0.26900
C374        C  0.72838980  0.27329917  0.10444291    -0.15000
C375        C  0.71922461  0.29672965  0.08153964     0.35600
C376        C  0.69570745  0.32351044  0.08694430    -0.26400
C377        C  0.68177785  0.32819431  0.11527126    -0.15600
C378        C  0.68838952  0.30293439  0.13719117     0.36700
N379        N  0.67393506  0.30590786  0.16594234    -0.89900
H380        H  0.71811085  0.25752565  0.14915514     0.17800
H381        H  0.69068176  0.34226185  0.06954243     0.17800
N382        N  0.73455178  0.29462245  0.05305078    -0.88900
H383        H  0.65816688  0.28454283  0.16946206     0.35200
H384        H  0.69593085  0.30611741  0.18221321     0.40300
H385        H  0.72759764  0.27126082  0.04369412     0.39900
H386        H  0.76313376  0.29588822  0.05644343     0.34800
C387        C  0.78121791  0.02281178  0.11191859    -0.26900
C388        C  0.75981005  0.02165376  0.13672343    -0.15000
C389        C  0.76432878  0.04663474  0.15864064     0.35600
C390        C  0.78794579  0.07378035  0.15440970    -0.26400
C391        C  0.80631464  0.07727949  0.12786531    -0.15600
C392        C  0.80425119  0.05046897  0.10720321     0.36700
N393        N  0.82328461  0.05221646  0.08039675    -0.89900
H394        H  0.77609784  0.50563377  0.09098777     0.17800
H395        H  0.78943266  0.09363443  0.17094351     0.17800
N396        N  0.74374783  0.04518985  0.18465245    -0.88900
H397        H  0.80389502  0.05086457  0.06209270     0.35200
H398        H  0.84034003  0.03118320  0.07983779     0.40300
H399        H  0.72783626  0.06697001  0.18518987     0.39900
H400        H  0.76229914  0.04516300  0.20354717     0.34800
C401        C  0.62365634  0.47660521  0.02916215    -0.26900
C402        C  0.65983849  0.46991599  0.04078003    -0.15000
C403        C  0.68820934  0.46858899  0.02096013     0.35600
C404        C  0.68225562  0.48002947  0.49263149    -0.26400
C405        C  0.64608971  0.48371867  0.48026211    -0.15600
C406        C  0.61652326  0.47885594  0.49812439     0.36700
N407        N  0.57942848  0.48239091  0.48545436    -0.89900
H408        H  0.60152559  0.47705106  0.04401530     0.17800
H409        H  0.70484333  0.48447654  0.47868788     0.17800
N410        N  0.72557201  0.46260577  0.03201642    -0.88900
H411        H  0.56080362  0.47815962  0.50173354     0.35200
H412        H  0.56394743  0.97467999  0.49398495     0.40300
H413        H  0.73402890  0.48319071  0.04520372     0.39900
H414        H  0.74281301  0.46185870  0.01437431     0.34800
C415        C  0.62326337  0.99630899  0.28224262    -0.26900
C416        C  0.65833886  0.00828273  0.29232992    -0.15000
C417        C  0.68470369  0.51643308  0.27069435     0.35600
C418        C  0.67664526  0.50819232  0.24040284    -0.26400
C419        C  0.64274840  0.49386545  0.23037920    -0.15600
C420        C  0.61537710  0.49006602  0.25072451     0.36700
N421        N  0.57923718  0.47824007  0.24167135    -0.89900
H422        H  0.60255415  0.99157155  0.29788252     0.17800
H423        H  0.69758113  0.51170972  0.22472448     0.17800
N424        N  0.71990873  0.53030392  0.28030069    -0.88900
H425        H  0.58083931  0.45340834  0.23447235     0.35200
H426        H  0.56839475  0.49317915  0.22394547     0.40300
H427        H  0.71365867  0.05513876  0.28775230     0.39900
H428        H  0.73659504  0.53205827  0.26235658     0.34800
C429        C  0.97465699  0.24750811  0.36044094    -0.26900
C430        C  0.95549870  0.27774907  0.36389352    -0.15000
C431        C  0.97554701  0.30632887  0.37408145     0.35600
C432        C  0.01376053  0.30423997  0.38025599    -0.26400
C433        C  0.03297867  0.27402924  0.37677683    -0.15600
C434        C  0.01297748  0.24533334  0.36649807     0.36700
N435        N  0.03149612  0.21411205  0.36188865    -0.89900
H436        H  0.95977490  0.22542353  0.35237985     0.17800
H437        H  0.02833880  0.32646609  0.38839017     0.17800
N438        N  0.95727656  0.33748062  0.37882770    -0.88900
H439        H  0.04840841  0.21773049  0.34428962     0.35200
H440        H  0.01273863  0.19537173  0.35496761     0.40300
H441        H  0.96864882  0.35584144  0.36556147     0.39900
H442        H  0.96261381  0.34425594  0.40125260     0.34800
C443        C  0.74226621  0.37501035  0.27276819    -0.26900
C444        C  0.75948560  0.34420040  0.26851507    -0.15000
C445        C  0.76420702  0.33329274  0.23898247     0.35600
C446        C  0.75112368  0.35292224  0.21441948    -0.26400
C447        C  0.73311682  0.38337460  0.21862360    -0.15600
C448        C  0.72917885  0.39468888  0.24835310     0.36700
N449        N  0.71314383  0.42655479  0.25457817    -0.89900
H450        H  0.74001862  0.38444092  0.29524383     0.17800
H451        H  0.75377318  0.34358980  0.19196566     0.17800
N452        N  0.78191025  0.30196952  0.23381777    -0.88900
H453        H  0.68514780  0.42623791  0.24798137     0.35200
H454        H  0.72607217  0.44518047  0.24266388     0.38700
H455        H  0.80462212  0.30672378  0.22151000     0.39900
H456        H  0.76357861  0.28697149  0.22075426     0.34800
C457        C  0.87297460  0.23457507  0.24050728    -0.26900
C458        C  0.84389277  0.23349866  0.25902445    -0.15000
C459        C  0.80837648  0.22441048  0.24688987     0.35600
C460        C  0.80259325  0.21769498  0.21634969    -0.26400
C461        C  0.83150346  0.21977384  0.19751784    -0.15600
C462        C  0.86733686  0.22733507  0.21004635     0.36700
N463        N  0.89823416  0.22769120  0.19203193    -0.89900
H464        H  0.90026850  0.24121568  0.24970983     0.17800
H465        H  0.77503932  0.21198385  0.20718883     0.17800
N466        N  0.77726089  0.22357232  0.26462752    -0.88900
H467        H  0.91750279  0.21030435  0.20098291     0.35200
H468        H  0.91017111  0.25154873  0.19348357     0.40300
H469        H  0.77474185  0.24688418  0.27494911     0.39900
H470        H  0.78160316  0.20506007  0.28106171     0.34800
C471        C  0.86613969  0.25226565  0.45834758    -0.26900
C472        C  0.82974684  0.25886082  0.44717078    -0.15000
C473        C  0.80154247  0.25880893  0.46712170     0.35600
C474        C  0.81017415  0.25020618  0.49722776    -0.26400
C475        C  0.84650928  0.23803215  0.00862292    -0.15600
C476        C  0.87311291  0.23304191  0.98786164     0.36700
N477        N  0.90832236  0.21860569  0.99615937    -0.89900
H478        H  0.88838813  0.25309961  0.44360103     0.17800
H479        H  0.79238189  0.25724898  0.01499223     0.17800
N480        N  0.76422743  0.26605054  0.45674838    -0.88900
H481        H  0.90473263  0.19382800  0.00308023     0.35200
H482        H  0.92082030  0.23241295  0.01390250     0.40300
H483        H  0.76287234  0.29149747  0.45100252     0.39900
H484        H  0.74670821  0.26277870  0.47399376     0.34800
C485        C  0.77855691  0.43550595  0.40445362    -0.26900
C486        C  0.76220736  0.45353282  0.38014066    -0.15000
C487        C  0.77201891  0.44621344  0.35092443     0.35600
C488        C  0.79624701  0.41948164  0.34642745    -0.26400
C489        C  0.80956178  0.39906265  0.37040689    -0.15600
C490        C  0.80187933  0.40818568  0.39979589     0.36700
N491        N  0.81624316  0.38860739  0.42484178    -0.89900
H492        H  0.77145542  0.44130287  0.42694614     0.17800
H493        H  0.80157613  0.41246335  0.32378617     0.17800
N494        N  0.75617949  0.46511071  0.32579637    -0.88900
H495        H  0.83147292  0.40455004  0.43948926     0.35200
H496        H  0.79414629  0.37935634  0.43598365     0.40300
H497        H  0.72809236  0.45979711  0.32360342     0.39900
H498        H  0.76682045  0.45710960  0.30596376     0.34800
C499        C  0.71874104  0.18156481  0.33084233    -0.26900
C500        C  0.72663910  0.20415131  0.35427341    -0.15000
C501        C  0.70908370  0.20007622  0.38116327     0.35600
C502        C  0.68641136  0.17217100  0.38501219    -0.26400
C503        C  0.68186361  0.14735810  0.36284620    -0.15600
C504        C  0.69642589  0.15336190  0.33481079     0.36700
N505        N  0.69035002  0.12981104  0.31083816    -0.89900
H506        H  0.73158741  0.18470413  0.30996976     0.17800
H507        H  0.67577873  0.16808550  0.40670029     0.17800
N508        N  0.71614968  0.22252375  0.40579507    -0.88900
H509        H  0.71587486  0.12108781  0.30501796     0.35200
H510        H  0.67792093  0.14257524  0.29235895     0.40300
H511        H  0.70919153  0.24682764  0.39855009     0.39900
H512        H  0.74425708  0.22188719  0.41204769     0.34800
Fe513      Fe  0.84038686  0.23923258  0.85462356     1.65800
Fe514      Fe  0.85144797  0.31243215  0.82098570     1.73200
Fe515      Fe  0.78024030  0.30139962  0.86343343     1.54400
O516        O  0.74778812  0.26109941  0.84993999    -0.82300
O517        O  0.83640904  0.35837545  0.84030726    -0.80600
O518        O  0.78788760  0.21982423  0.85974940    -0.84800
O519        O  0.84657003  0.24959295  0.89876487    -0.79700
O520        O  0.76313532  0.32648092  0.82251454    -0.81400
O521        O  0.89733284  0.30776790  0.84999837    -0.84200
C522        C  0.82370203  0.26232561  0.91547237     0.96600
C523        C  0.75508059  0.23050553  0.85537171     1.04000
O524        O  0.82347233  0.28437140  0.84640966    -1.13200
O525        O  0.86705895  0.27124261  0.79592165    -0.75600
O526        O  0.83318158  0.22881580  0.81019200    -0.79100
O527        O  0.79508170  0.27828893  0.90499246    -0.79800
C528        C  0.84828206  0.24478372  0.78998508     0.95500
O529        O  0.89606597  0.25212659  0.85176737    -0.77700
O530        O  0.80745370  0.31666625  0.79155506    -0.82900
C531        C  0.81992405  0.36526345  0.86366986     0.98100
C532        C  0.77580480  0.32713310  0.79641915     1.04000
O533        O  0.80851483  0.34224343  0.87991321    -0.78600
C534        C  0.91367509  0.27985562  0.85450194     1.02300
Fe535      Fe  0.64491837  0.48351399  0.63403687     1.65800
Fe536      Fe  0.63566638  0.40956202  0.66731601     1.73200
Fe537      Fe  0.70775502  0.42343799  0.62653217     1.54400
O538        O  0.69438739  0.44745430  0.58518577    -0.82300
O539        O  0.67902336  0.40540715  0.69717003    -0.80600
O540        O  0.64073667  0.47346885  0.58963632    -0.84800
O541        O  0.69694441  0.50421861  0.63082072    -0.79700
O542        O  0.68115516  0.38268013  0.60845783    -0.81400
O543        O  0.61909259  0.45002857  0.69329220    -0.84200
C544        C  0.72977942  0.49439624  0.63696501     0.96600
C545        C  0.66552061  0.46236436  0.57387113     1.04000
O546        O  0.66320009  0.43883031  0.64259140    -1.13200
O547        O  0.59015451  0.41344694  0.63814322    -0.75600
O548        O  0.58966192  0.46912555  0.63558604    -0.79100
O549        O  0.73794610  0.46395122  0.64200726    -0.79800
C550        C  0.57321337  0.44087418  0.63290680     0.95500
O551        O  0.65035391  0.49404519  0.67843758    -0.77700
O552        O  0.65187144  0.36456909  0.64672770    -0.82900
C553        C  0.71121241  0.39621906  0.69289462     0.98100
C554        C  0.66914500  0.35884697  0.62348119     1.04000
O555        O  0.72445235  0.39757075  0.66707803    -0.78600
C556        C  0.63592058  0.47770785  0.69876592     1.02300
Fe557      Fe  0.64700366  0.98992140  0.88563428     1.65800
Fe558      Fe  0.63702510  0.06327100  0.91897018     1.73200
Fe559      Fe  0.70910200  0.05025623  0.87751795     1.54400
O560        O  0.73838290  0.50905762  0.89069029    -0.82300
O561        O  0.65087603  0.10879616  0.89781362    -0.80600
O562        O  0.69792483  0.46948403  0.87724354    -0.84800
O563        O  0.63945132  0.00206357  0.84181067    -0.79700
O564        O  0.72726791  0.07457772  0.91833797    -0.81400
O565        O  0.59044049  0.05780797  0.89071476    -0.84200
C566        C  0.66300687  0.01387589  0.82510380     0.96600
C567        C  0.73076981  0.47915939  0.88303655     1.04000
O568        O  0.66483897  0.03477779  0.89401397    -1.13200
O569        O  0.62298476  0.02200478  0.94525109    -0.75600
O570        O  0.65334803  0.47849143  0.92781453    -0.79100
O571        O  0.69276243  0.02807896  0.83568931    -0.79800
C572        C  0.64055624  0.99456686  0.95045953     0.95500
O573        O  0.59190643  0.00229340  0.89047140    -0.77700
O574        O  0.68104123  0.06919961  0.94822183    -0.82900
C575        C  0.66909040  0.11548436  0.87522139     0.98100
C576        C  0.71358291  0.07761627  0.94387978     1.04000
O577        O  0.68398130  0.09262115  0.86094079    -0.78600
C578        C  0.57416745  0.02978944  0.88718561     1.02300
Fe579      Fe  0.84384184  0.23694385  0.60328321     1.65800
Fe580      Fe  0.85452044  0.16301762  0.57068597     1.73200
Fe581      Fe  0.78341673  0.17525937  0.61256579     1.54400
O582        O  0.79755517  0.19895718  0.65376262    -0.82300
O583        O  0.81076810  0.15880371  0.54109135    -0.80600
O584        O  0.84918146  0.22746044  0.64769449    -0.84800
O585        O  0.79117417  0.25660277  0.60707819    -0.79700
O586        O  0.81254809  0.13558775  0.63007310    -0.81400
O587        O  0.87091168  0.20376652  0.54510427    -0.84200
C588        C  0.75838378  0.24586446  0.60255841     0.96600
C589        C  0.82632966  0.21454762  0.66431260     1.04000
O590        O  0.82665737  0.19188527  0.59544898    -1.13200
O591        O  0.89993427  0.16748274  0.60003268    -0.75600
O592        O  0.89956947  0.22323901  0.60160043    -0.79100
O593        O  0.75103719  0.21514501  0.59802655    -0.79800
C594        C  0.91647100  0.19518568  0.60511237     0.95500
O595        O  0.83732971  0.24667869  0.55874141    -0.77700
O596        O  0.83870646  0.11736193  0.59064319    -0.82900
C597        C  0.77944415  0.14756834  0.54610208     0.98100
C598        C  0.82238674  0.11161016  0.61434545     1.04000
O599        O  0.76669870  0.14906986  0.57214853    -0.78600
C600        C  0.85241394  0.23033720  0.53885461     1.02300
Fe601      Fe  0.14375535  0.23151489  0.89091215     1.65800
Fe602      Fe  0.13379400  0.30824233  0.91844065     1.73200
Fe603      Fe  0.20871578  0.28947230  0.88217247     1.54400
O604        O  0.23679311  0.24850261  0.89995072    -0.82300
O605        O  0.15028750  0.35107969  0.89504858    -0.80600
O606        O  0.19523383  0.20910447  0.88872565    -0.84800
O607        O  0.14095954  0.23911656  0.84626848    -0.79700
O608        O  0.22467846  0.31657873  0.92213669    -0.81400
O609        O  0.08929419  0.30169412  0.88833513    -0.84200
C610        C  0.16589072  0.24958461  0.83021871     0.96600
C611        C  0.22828298  0.21824610  0.89463979     1.04000
O612        O  0.16255999  0.27662658  0.89708933    -1.13200
O613        O  0.11666009  0.26991117  0.94631901    -0.75600
O614        O  0.14838138  0.22459865  0.93584651    -0.79100
O615        O  0.19502180  0.26431734  0.84135424    -0.79800
C616        C  0.13466768  0.24362550  0.95468167     0.95500
O617        O  0.08835584  0.24624442  0.89104302    -0.77700
O618        O  0.17573789  0.31586244  0.94943609    -0.82900
C619        C  0.17041784  0.35521847  0.87322182     0.98100
C620        C  0.20914174  0.32235711  0.94651212     1.04000
O621        O  0.18604691  0.33077227  0.86166755    -0.78600
C622        C  0.07200187  0.27412801  0.88549664     1.02300
Fe623      Fe  0.34255436  0.47739115  0.60462001     1.65800
Fe624      Fe  0.35325424  0.40148558  0.57626329     1.73200
Fe625      Fe  0.28017800  0.41742424  0.61567313     1.54400
O626        O  0.29551926  0.44197987  0.65635102    -0.82300
O627        O  0.31014955  0.39486952  0.54633220    -0.80600
O628        O  0.34765107  0.47001734  0.64925126    -0.84800
O629        O  0.29087543  0.49866904  0.60863041    -0.79700
O630        O  0.30533808  0.37608342  0.63451147    -0.81400
O631        O  0.36992758  0.44043487  0.54899938    -0.84200
C632        C  0.25779066  0.48879753  0.60493201     0.96600
C633        C  0.32397577  0.45869360  0.66601783     1.04000
O634        O  0.32475152  0.43197196  0.59898502    -1.13200
O635        O  0.39840865  0.40784256  0.60560110    -0.75600
O636        O  0.39778405  0.46344723  0.60289274    -0.79100
O637        O  0.24959997  0.45830678  0.60009978    -0.79800
C638        C  0.41494353  0.43583863  0.60783723     0.95500
O639        O  0.33647787  0.48458323  0.55959850    -0.77700
O640        O  0.33785175  0.35752108  0.59832018    -0.82900
C641        C  0.27743136  0.38673378  0.55043669     0.98100
C642        C  0.31946356  0.35223307  0.62095991     1.04000
O643        O  0.26309811  0.39091624  0.57561803    -0.78600
C644        C  0.35226833  0.46691582  0.54088042     1.02300
Fe645      Fe  0.14765508  0.22903130  0.64019347     1.65800
Fe646      Fe  0.13575243  0.15434203  0.67079300     1.73200
Fe647      Fe  0.20790356  0.16725812  0.62975136     1.54400
O648        O  0.19327371  0.19159831  0.58876383    -0.82300
O649        O  0.17916002  0.14901340  0.70048994    -0.80600
O650        O  0.14212037  0.22071410  0.59579240    -0.84800
O651        O  0.20002453  0.24874016  0.63621229    -0.79700
O652        O  0.18041433  0.12659100  0.61200889    -0.81400
O653        O  0.11976868  0.19449666  0.69689709    -0.84200
C654        C  0.23273388  0.23787474  0.64025612     0.96600
C655        C  0.16494152  0.20835257  0.57883851     1.04000
O656        O  0.16426978  0.18347216  0.64671496    -1.13200
O657        O  0.09028561  0.16035443  0.64146940    -0.75600
O658        O  0.09188112  0.21608289  0.64196752    -0.79100
O659        O  0.24001616  0.20711312  0.64446938    -0.79800
C660        C  0.07420968  0.18855626  0.63783160     0.95500
O661        O  0.15462119  0.23724775  0.68499860    -0.77700
O662        O  0.15130236  0.10902796  0.65048071    -0.82900
C663        C  0.21127659  0.13942235  0.69605015     0.98100
C664        C  0.16876087  0.10296181  0.62744290     1.04000
O665        O  0.22464636  0.14141914  0.67026917    -0.78600
C666        C  0.13888227  0.22034891  0.70427812     1.02300
Fe667      Fe  0.34361591  0.98029576  0.85577119     1.65800
Fe668      Fe  0.35341323  0.05678866  0.82749268     1.73200
Fe669      Fe  0.27886881  0.03842338  0.86432770     1.54400
O670        O  0.24917455  0.49971093  0.84817600    -0.82300
O671        O  0.33568585  0.09997751  0.84989686    -0.80600
O672        O  0.28964650  0.45820800  0.85586412    -0.84800
O673        O  0.34614888  0.98776163  0.90029056    -0.79700
O674        O  0.26329632  0.06558758  0.82441677    -0.81400
O675        O  0.39790518  0.05089047  0.85777913    -0.84200
C676        C  0.32094594  0.99806859  0.91600530     0.96600
C677        C  0.25681863  0.46885824  0.85129273     1.04000
O678        O  0.32482296  0.02527804  0.84923880    -1.13200
O679        O  0.37155082  0.01846119  0.80010646    -0.75600
O680        O  0.33778695  0.47144566  0.80947326    -0.79100
O681        O  0.29197561  0.01309565  0.90502748    -0.79800
C682        C  0.35484924  0.99132747  0.79227150     0.95500
O683        O  0.39880823  0.99539039  0.85586282    -0.77700
O684        O  0.31146925  0.06317167  0.79639936    -0.82900
C685        C  0.31586111  0.10407421  0.87193796     0.98100
C686        C  0.27837322  0.07047366  0.79970055     1.04000
O687        O  0.30229874  0.07931990  0.88474612    -0.78600
C688        C  0.41524629  0.02330293  0.86075830     1.02300
C689        C  0.27041560  0.07973230  0.74475126    -0.26900
C690        C  0.25866500  0.08677644  0.77344637    -0.15000
C691        C  0.23322334  0.11284891  0.77657452     0.35600
C692        C  0.22024365  0.13112470  0.75111068    -0.26400
C693        C  0.23150731  0.12364743  0.72234241    -0.15600
C694        C  0.25716258  0.09788064  0.71936365     0.36700
N695        N  0.26919659  0.08946306  0.69060503    -0.89900
H696        H  0.29035695  0.06003861  0.74196619     0.17800
H697        H  0.20054173  0.15106281  0.75373313     0.17800
N698        N  0.22158095  0.12151011  0.80555847    -0.88900
H699        H  0.26279406  0.06427365  0.68641532     0.35200
H700        H  0.29772926  0.09204633  0.69153987     0.40300
H701        H  0.20554988  0.10168404  0.81264455     0.39900
H702        H  0.20448138  0.14260462  0.80411692     0.34800
C703        C  0.30324606  0.29342018  0.60705508    -0.26900
C704        C  0.30908618  0.31763156  0.62965730    -0.15000
C705        C  0.29539042  0.31145238  0.65798388     0.35600
C706        C  0.27207836  0.28386930  0.66170533    -0.26400
C707        C  0.26309087  0.26192042  0.63801423    -0.15600
C708        C  0.28008155  0.26570493  0.61089011     0.36700
N709        N  0.27198189  0.24254288  0.58673772    -0.89900
H710        H  0.31363586  0.29783577  0.58532891     0.17800
H711        H  0.25946270  0.28039471  0.68266860     0.17800
N712        N  0.30342939  0.33438688  0.68230405    -0.88900
H713        H  0.28687498  0.24869884  0.56840593     0.35200
H714        H  0.24426067  0.24530164  0.57960059     0.40300
H715        H  0.33175174  0.33360836  0.68765124     0.39900
H716        H  0.29093363  0.32652673  0.70140812     0.34800
C717        C  0.19312336  0.04706790  0.64427537    -0.26900
C718        C  0.18129366  0.06840234  0.62045969    -0.15000
C719        C  0.19061342  0.06013031  0.59119719     0.35600
C720        C  0.21476352  0.03320852  0.58691214    -0.26400
C721        C  0.22925634  0.01402536  0.61117925    -0.15600
C722        C  0.21714412  0.02005351  0.63994524     0.36700
N723        N  0.22711642  0.49673172  0.66172454    -0.89900
H724        H  0.18630040  0.05318916  0.66677140     0.17800
H725        H  0.22348786  0.02804395  0.56477159     0.17800
N726        N  0.17681029  0.08015240  0.56611601    -0.88900
H727        H  0.20379132  0.48641409  0.67040096     0.35200
H728        H  0.24075963  0.51116247  0.67850749     0.40300
H729        H  0.14826838  0.07746552  0.56418350     0.39900
H730        H  0.18640280  0.07105819  0.54624388     0.34800
C731        C  0.32853047  0.44070137  0.71917633    -0.26900
C732        C  0.33037590  0.46633789  0.69794141    -0.15000
C733        C  0.34209614  0.49876531  0.70700213     0.35600
C734        C  0.35292557  0.00723417  0.73885326    -0.26400
C735        C  0.34913768  0.47959266  0.75879050    -0.15600
C736        C  0.33814304  0.44695220  0.74951485     0.36700
N737        N  0.33719332  0.41998067  0.77067686    -0.89900
H738        H  0.32054240  0.41557175  0.71211222     0.17800
H739        H  0.36070271  0.03246416  0.74571293     0.17800
N740        N  0.34583915  0.02732432  0.68679990    -0.88900
H741        H  0.35482636  0.40108271  0.76421450     0.35200
H742        H  0.31056163  0.41022788  0.76947578     0.40300
H743        H  0.35465287  0.04973927  0.69710022     0.39900
H744        H  0.31933783  0.03166743  0.67725433     0.34800
C745        C  0.32708576  0.50490825  0.50020526    -0.26900
C746        C  0.34878991  0.47682405  0.50894677    -0.15000
C747        C  0.35096621  0.45040634  0.98640210     0.35600
C748        C  0.34185203  0.45796149  0.95627190    -0.26400
C749        C  0.32623938  0.99091871  0.94814675    -0.15600
C750        C  0.32039350  0.01524818  0.96997689     0.36700
N751        N  0.30578460  0.04769676  0.96145741    -0.89900
H752        H  0.31601679  0.52066829  0.51704522     0.17800
H753        H  0.34708089  0.43948973  0.93936690     0.17800
N754        N  0.38697439  0.42894004  0.49436083    -0.88900
H755        H  0.30517444  0.06328445  0.98016124     0.35200
H756        H  0.27848366  0.04433416  0.95338242     0.40300
H757        H  0.41189080  0.43285486  0.48476130     0.39900
H758        H  0.36588412  0.40232041  0.97577324     0.34800
C759        C  0.26816924  0.38170652  0.99602894    -0.26900
C760        C  0.25742597  0.37040058  0.52437666    -0.15000
C761        C  0.23341628  0.34328758  0.52762937     0.35600
C762        C  0.21742800  0.33053899  0.00165690    -0.26400
C763        C  0.22878473  0.33845433  0.97296908    -0.15600
C764        C  0.25415900  0.36468978  0.97016556     0.36700
N765        N  0.26491919  0.37458057  0.94115971    -0.89900
H766        H  0.28655520  0.39936087  0.49275581     0.17800
H767        H  0.19756805  0.31065373  0.00395908     0.17800
N768        N  0.22335753  0.33327307  0.55666882    -0.88900
H769        H  0.28410890  0.39408232  0.94309229     0.35200
H770        H  0.24171775  0.38430490  0.92908584     0.40300
H771        H  0.23150970  0.30832768  0.56022921     0.39900
H772        H  0.19475308  0.33420759  0.55663628     0.34800
C773        C  0.16155309  0.20612917  0.99517760    -0.26900
C774        C  0.14121112  0.23523922  0.98686764    -0.15000
C775        C  0.12388293  0.24864399  0.50791651     0.35600
C776        C  0.13318095  0.24121426  0.53790639    -0.26400
C777        C  0.15751192  0.21492305  0.54648932    -0.15600
C778        C  0.17263551  0.19544165  0.52421626     0.36700
N779        N  0.19669147  0.16775315  0.53216693    -0.89900
H780        H  0.16998177  0.18913763  0.97812319     0.17800
H781        H  0.12117335  0.25652837  0.55461329     0.17800
N782        N  0.11091681  0.28743568  0.00224849    -0.88900
H783        H  0.20600705  0.15657278  0.51301988     0.35200
H784        H  0.18123987  0.14953025  0.54244725     0.40300
H785        H  0.12640434  0.30776939  0.01080850     0.39900
H786        H  0.07407178  0.27020782  0.51008218     0.34800
C787        C  0.17773051  0.24497905  0.74628409    -0.26900
C788        C  0.14415995  0.23031817  0.73594335    -0.15000
C789        C  0.11776339  0.22304325  0.75632594     0.35600
C790        C  0.12574732  0.22989264  0.78668559    -0.26400
C791        C  0.15973030  0.24373091  0.79746999    -0.15600
C792        C  0.18608574  0.25136348  0.77685937     0.36700
N793        N  0.22133039  0.26490966  0.78683933    -0.89900
H794        H  0.19824591  0.25016583  0.73056941     0.17800
H795        H  0.10496569  0.22416725  0.80199529     0.17800
N796        N  0.08290348  0.20879345  0.74616249    -0.88900
H797        H  0.23676003  0.27024221  0.76862465     0.35200
H798        H  0.23564327  0.24616971  0.79921731     0.40300
H799        H  0.06900988  0.22653569  0.73234872     0.39900
H800        H  0.06670715  0.20454260  0.76413777     0.34800
C801        C  0.20004187  0.39097699  0.83633754    -0.26900
C802        C  0.18063671  0.38920903  0.86245909    -0.15000
C803        C  0.18051090  0.41773647  0.88119733     0.35600
C804        C  0.20344019  0.44520189  0.87550247    -0.26400
C805        C  0.22654113  0.44442845  0.85176093    -0.15600
C806        C  0.22354982  0.41788456  0.83132007     0.36700
N807        N  0.24563628  0.41748530  0.80617174    -0.89900
H808        H  0.19979482  0.36987689  0.82109900     0.17800
H809        H  0.20545625  0.46608772  0.89098831     0.17800
N810        N  0.15960491  0.41770920  0.90716947    -0.88900
H811        H  0.22810520  0.41590923  0.78672535     0.35200
H812        H  0.26179927  0.39579325  0.80759722     0.40300
H813        H  0.13185393  0.41704165  0.89964116     0.39900
H814        H  0.16360601  0.44009759  0.91909139     0.34800
C815        C  0.27786954  0.19269419  0.86732776    -0.26900
C816        C  0.25773141  0.19310100  0.89286604    -0.15000
C817        C  0.26288945  0.16732242  0.91420426     0.35600
C818        C  0.28632992  0.14035864  0.90861253    -0.26400
C819        C  0.30367743  0.13794629  0.88148167    -0.15600
C820        C  0.30043668  0.16524822  0.86127456     0.36700
N821        N  0.31758443  0.16416674  0.83353526    -0.89900
H822        H  0.27396382  0.21263233  0.85087165     0.17800
H823        H  0.28875368  0.11982222  0.92455930     0.17800
N824        N  0.24289148  0.16782292  0.94069510    -0.88900
H825        H  0.33446715  0.18526618  0.83245933     0.35200
H826        H  0.29706375  0.16584529  0.81606782     0.40300
H827        H  0.25169286  0.18877133  0.95326151     0.39900
H828        H  0.24931197  0.14672626  0.95400924     0.34800
C829        C  0.97359138  0.16333786  0.62133675    -0.26900
C830        C  0.95669026  0.19439602  0.61426772    -0.15000
C831        C  0.97882950  0.22355630  0.61536296     0.35600
C832        C  0.01681478  0.22100085  0.62288459    -0.26400
C833        C  0.03376397  0.18984728  0.62960294    -0.15600
C834        C  0.01145599  0.16079575  0.62904752     0.36700
N835        N  0.02682128  0.12852120  0.63661128    -0.89900
H836        H  0.95733959  0.14056764  0.62099701     0.17800
H837        H  0.03310355  0.24375020  0.62333284     0.17800
N838        N  0.96315827  0.25589605  0.60858668    -0.88900
H839        H  0.02125914  0.11253064  0.61837793     0.35200
H840        H  0.01355293  0.11896207  0.65473191     0.40300
H841        H  0.97627429  0.26612790  0.59066890     0.39900
H842        H  0.96866311  0.27136052  0.62719385     0.34800
C843        C  0.51518228  0.99759265  0.88171990    -0.26900
C844        C  0.53351918  0.02857530  0.88032640    -0.15000
C845        C  0.51249868  0.05757882  0.87291285     0.35600
C846        C  0.47426478  0.05509135  0.86724408    -0.26400
C847        C  0.45584375  0.02409253  0.86839740    -0.15600
C848        C  0.47708075  0.99494201  0.87580200     0.36700
N849        N  0.46111836  0.96222757  0.87779390    -0.89900
H850        H  0.53054118  0.97493715  0.88753310     0.17800
H851        H  0.45903446  0.07780361  0.86140337     0.17800
N852        N  0.52970960  0.08971126  0.87066145    -0.88900
H853        H  0.44924519  0.95541686  0.85674326     0.35200
H854        H  0.44109712  0.96287646  0.89329689     0.40300
H855        H  0.51821798  0.10600006  0.88568415     0.39900
H856        H  0.52359033  0.09897490  0.84900921     0.34800
C857        C  0.72579284  0.08258895  0.99892938    -0.26900
C858        C  0.73398798  0.09331008  0.97007664    -0.15000
C859        C  0.75534591  0.12242132  0.96723943     0.35600
C860        C  0.76740842  0.14032443  0.99311932    -0.26400
C861        C  0.75964643  0.13055976  0.52022621    -0.15600
C862        C  0.73764950  0.10192686  0.52363899     0.36700
N863        N  0.72898799  0.09091596  0.55290283    -0.89900
H864        H  0.70924796  0.06025681  0.00124396     0.17800
H865        H  0.78417853  0.16252529  0.99085623     0.17800
N866        N  0.76413923  0.13413256  0.93822050    -0.88900
H867        H  0.71433557  0.06834303  0.55156130     0.35200
H868        H  0.71144272  0.10877493  0.56124035     0.40300
H869        H  0.73962309  0.14124571  0.92649646     0.39900
H870        H  0.78040067  0.15573410  0.94014168     0.34800
C871        C  0.47511136  0.46522974  0.60637782    -0.26900
C872        C  0.45541456  0.43667636  0.61454081    -0.15000
C873        C  0.47493656  0.40925298  0.62782950     0.35600
C874        C  0.51320215  0.41107004  0.63307367    -0.26400
C875        C  0.53291042  0.43973348  0.62520956    -0.15600
C876        C  0.51356323  0.46690819  0.61114920     0.36700
N877        N  0.53292579  0.49586478  0.60127692    -0.89900
H878        H  0.46054204  0.48615885  0.59554993     0.17800
H879        H  0.52745756  0.38995847  0.64389572     0.17800
N880        N  0.45609860  0.37965767  0.63658288    -0.88900
H881        H  0.51459701  0.51366771  0.59163606     0.35200
H882        H  0.54918295  0.48803965  0.58431839     0.40300
H883        H  0.46192511  0.37602711  0.65956327     0.39900
H884        H  0.46660835  0.35917511  0.62541344     0.34800
C885        C  0.71016573  0.27175795  0.63130943    -0.26900
C886        C  0.72792283  0.26993866  0.60457183    -0.15000
C887        C  0.71907944  0.29353816  0.58175837     0.35600
C888        C  0.69515274  0.32001806  0.58698258    -0.26400
C889        C  0.68071990  0.32438213  0.61514178    -0.15600
C890        C  0.68676361  0.29880490  0.63685026     0.36700
N891        N  0.67139716  0.30127500  0.66528452    -0.89900
H892        H  0.71646369  0.25336528  0.64882040     0.17800
H893        H  0.69039346  0.33892122  0.56967907     0.17800
N894        N  0.73518937  0.29193535  0.55356288    -0.88900
H895        H  0.65546466  0.27984241  0.66816335     0.35200
H896        H  0.69288431  0.30114578  0.68197683     0.40300
H897        H  0.72881469  0.26858760  0.54392589     0.39900
H898        H  0.76369802  0.29355604  0.55741256     0.34800
C899        C  0.78023742  0.02460004  0.60694762    -0.26900
C900        C  0.76232092  0.02302018  0.63364688    -0.15000
C901        C  0.77021939  0.04714293  0.65584439     0.35600
C902        C  0.79416975  0.07364495  0.65045124    -0.26400
C903        C  0.80936947  0.07748964  0.62251367    -0.15600
C904        C  0.80349100  0.05171947  0.60108444     0.36700
N905        N  0.81905966  0.05392008  0.57270062    -0.89900
H906        H  0.78012924  0.49980171  0.59643245     0.17800
H907        H  0.79851731  0.09276337  0.66750124     0.17800
N908        N  0.75270188  0.04557005  0.68341235    -0.88900
H909        H  0.79763454  0.05375330  0.55591296     0.35200
H910        H  0.83497272  0.03244802  0.57013230     0.40300
H911        H  0.73787752  0.06778055  0.68557722     0.39900
H912        H  0.77314878  0.04452776  0.70096421     0.34800
C913        C  0.62374196  0.47065798  0.52840886    -0.26900
C914        C  0.65998356  0.46788738  0.54124352    -0.15000
C915        C  0.68961447  0.47285068  0.52316588     0.35600
C916        C  0.67977364  0.47458030  0.99028829    -0.26400
C917        C  0.64398295  0.48295179  0.97920850    -0.15600
C918        C  0.61550776  0.48331416  0.99866338     0.36700
N919        N  0.57851634  0.49064039  0.98738417    -0.89900
H920        H  0.60087832  0.46685141  0.54217935     0.17800
H921        H  0.70166242  0.47463690  0.97517832     0.17800
N922        N  0.72683282  0.47217391  0.53601214    -0.88900
H923        H  0.56076975  0.49004717  0.00468687     0.35200
H924        H  0.56988473  0.97667971  0.97385127     0.40300
H925        H  0.73006982  0.49240393  0.55079205     0.39900
H926        H  0.74524285  0.47619513  0.51952534     0.34800
C927        C  0.62401209  0.99012999  0.78254198    -0.26900
C928        C  0.65526786  0.00893369  0.79236817    -0.15000
C929        C  0.68299985  0.51439575  0.76926631     0.35600
C930        C  0.67498137  0.50476181  0.73930438    -0.26400
C931        C  0.64078488  0.49075014  0.72962037    -0.15600
C932        C  0.61317125  0.48857842  0.74986213     0.36700
N933        N  0.57690954  0.47693447  0.74100056    -0.89900
H934        H  0.60504741  0.98124286  0.79832302     0.17800
H935        H  0.69613680  0.50694162  0.72365045     0.17800
N936        N  0.71858579  0.52761735  0.77862060    -0.88900
H937        H  0.57826994  0.45181890  0.73453020     0.35200
H938        H  0.56645729  0.49128714  0.72275298     0.40300
H939        H  0.70649652  0.06432399  0.76769381     0.39900
H940        H  0.73555068  0.52783540  0.76079310     0.34800
C941        C  0.97188527  0.24790060  0.86720386    -0.26900
C942        C  0.95432366  0.27908947  0.86214276    -0.15000
C943        C  0.97612663  0.30859832  0.86408560     0.35600
C944        C  0.01415091  0.30609722  0.87159439    -0.26400
C945        C  0.03162331  0.27490850  0.87678087    -0.15600
C946        C  0.00992503  0.24551589  0.87432339     0.36700
N947        N  0.02613852  0.21302205  0.87911263    -0.89900
H948        H  0.95604089  0.22489787  0.86565650     0.17800
H949        H  0.03026989  0.32892518  0.87324111     0.17800
N950        N  0.95992492  0.34111942  0.85842263    -0.88900
H951        H  0.02059783  0.19884936  0.85970262     0.35200
H952        H  0.01343047  0.20128874  0.89654479     0.40300
H953        H  0.95189508  0.34244802  0.83557040     0.39900
H954        H  0.97933071  0.36015516  0.86254292     0.34800
C955        C  0.74143715  0.37538834  0.77346827    -0.26900
C956        C  0.75557213  0.34304351  0.77042376    -0.15000
C957        C  0.75782143  0.32957350  0.74141616     0.35600
C958        C  0.74601321  0.34854981  0.71610442    -0.26400
C959        C  0.73140101  0.38072510  0.71912306    -0.15600
C960        C  0.72936147  0.39430752  0.74828673     0.36700
N961        N  0.71622115  0.42765269  0.75303865    -0.89900
H962        H  0.74102498  0.38655099  0.79548315     0.17800
H963        H  0.74693259  0.33752530  0.69407584     0.17800
N964        N  0.77193690  0.29640574  0.73763993    -0.88900
H965        H  0.68827964  0.42899559  0.74641443     0.35200
H966        H  0.73057270  0.44437586  0.74015574     0.38700
H967        H  0.79446398  0.29807630  0.72456966     0.39900
H968        H  0.75166427  0.28218364  0.72586101     0.34800
C969        C  0.87229154  0.23773406  0.74027621    -0.26900
C970        C  0.84361837  0.23282350  0.75886581    -0.15000
C971        C  0.80986517  0.21941066  0.74660006     0.35600
C972        C  0.80514457  0.21277690  0.71595698    -0.26400
C973        C  0.83341262  0.21890907  0.69706478    -0.15600
C974        C  0.86779514  0.23052066  0.70972495     0.36700
N975        N  0.89836689  0.23515700  0.69177935    -0.89900
H976        H  0.89838222  0.24755988  0.74946358     0.17800
H977        H  0.77872548  0.20370784  0.70679796     0.17800
N978        N  0.77922943  0.21381741  0.76426473    -0.88900
H979        H  0.92000116  0.22009832  0.70058213     0.35200
H980        H  0.90669824  0.26023730  0.69351178     0.40300
H981        H  0.77278499  0.23627615  0.77472047     0.39900
H982        H  0.78644852  0.19568183  0.78053519     0.34800
C983        C  0.86541071  0.24276937  0.95818761    -0.26900
C984        C  0.83121789  0.25682798  0.94813356    -0.15000
C985        C  0.80496570  0.26293174  0.96912117     0.35600
C986        C  0.81295012  0.25337716  0.99907537    -0.26400
C987        C  0.84618278  0.24168713  0.50771065    -0.15600
C988        C  0.87451415  0.24334682  0.48813573     0.36700
N989        N  0.91199247  0.23648213  0.49786928    -0.89900
H990        H  0.88640627  0.23846985  0.94272893     0.17800
H991        H  0.78843190  0.24906965  0.51244738     0.17800
N992        N  0.77009093  0.27790737  0.96007141    -0.88900
H993        H  0.91418039  0.21151718  0.50497232     0.35200
H994        H  0.91961801  0.25214820  0.51595018     0.40300
H995        H  0.77501818  0.30284362  0.95418075     0.39900
H996        H  0.75335107  0.27884463  0.97802802     0.34800
C997        C  0.77650078  0.43702852  0.90339303    -0.26900
C998        C  0.76065692  0.45497296  0.87884554    -0.15000
C999        C  0.77070724  0.44719231  0.84978679     0.35600
C1000       C  0.79487669  0.42026802  0.84571999    -0.26400
C1001       C  0.80789453  0.40006292  0.86996906    -0.15600
C1002       C  0.79976491  0.40954459  0.89918933     0.36700
N1003       N  0.81369900  0.39027252  0.92456813    -0.89900
H1004       H  0.76908235  0.44307149  0.92575043     0.17800
H1005       H  0.80057502  0.41307406  0.82320664     0.17800
N1006       N  0.75517832  0.46583149  0.82438785    -0.88900
H1007       H  0.82874316  0.40636788  0.93919700     0.35200
H1008       H  0.79138147  0.38122253  0.93555575     0.40300
H1009       H  0.72705378  0.46072104  0.82213336     0.39900
H1010       H  0.76589624  0.45744975  0.80470056     0.34800
C1011       C  0.71374104  0.18550267  0.83432459    -0.26900
C1012       C  0.72466656  0.20645675  0.85831794    -0.15000
C1013       C  0.70931540  0.20152089  0.88611132     0.35600
C1014       C  0.68588683  0.17411177  0.89006258    -0.26400
C1015       C  0.67847599  0.15063621  0.86705284    -0.15600
C1016       C  0.69070813  0.15781457  0.83838816     0.36700
N1017       N  0.68149953  0.13585928  0.81370119    -0.89900
H1018       H  0.72478018  0.18947401  0.81277228     0.17800
H1019       H  0.67691056  0.16919031  0.91219729     0.17800
N1020       N  0.71912805  0.22261570  0.91127266    -0.88900
H1021       H  0.70588929  0.12668920  0.80593853     0.35200
H1022       H  0.66810871  0.15003321  0.79652174     0.40300
H1023       H  0.71241099  0.24738568  0.90533024     0.39900
H1024       H  0.74751632  0.22114897  0.91604800     0.34800
Fe1025     Fe  0.84333235  0.73661343  0.35492782     1.65800
Fe1026     Fe  0.85393058  0.81084157  0.32253360     1.73200
Fe1027     Fe  0.78239650  0.79782029  0.36410590     1.54400
O1028       O  0.75085458  0.75792815  0.34857752    -0.82300
O1029       O  0.83861028  0.85580192  0.34334968    -0.80600
O1030       O  0.79084967  0.71675257  0.35918786    -0.84800
O1031       O  0.84889917  0.74585660  0.39908574    -0.79700
O1032       O  0.76572415  0.82478441  0.32389316    -0.81400
O1033       O  0.89978482  0.80578130  0.35152522    -0.84200
C1034       C  0.82505404  0.75696504  0.41568094     0.96600
C1035       C  0.75810922  0.72735460  0.35402621     1.04000
O1036       O  0.82610887  0.78180039  0.34725213    -1.13200
O1037       O  0.86963272  0.77038738  0.29654464    -0.75600
O1038       O  0.83656952  0.72718517  0.31058798    -0.79100
O1039       O  0.79637229  0.77289322  0.40518484    -0.79800
C1040       C  0.85082407  0.74396547  0.29050566     0.95500
O1041       O  0.89890733  0.75005992  0.35288944    -0.77700
O1042       O  0.81006274  0.81599585  0.29287068    -0.82900
C1043       C  0.82196804  0.86167575  0.36687356     0.98100
C1044       C  0.77850314  0.82660173  0.29786192     1.04000
O1045       O  0.81020356  0.83801195  0.38222432    -0.78600
C1046       C  0.91612301  0.77791914  0.35626633     1.02300
Fe1047     Fe  0.64485173  0.98574951  0.13562653     1.65800
Fe1048     Fe  0.63551380  0.91275583  0.17075068     1.73200
Fe1049     Fe  0.70732893  0.92520001  0.12934013     1.54400
O1050       O  0.69350118  0.94729518  0.08723522    -0.82300
O1051       O  0.67915741  0.90974662  0.20090311    -0.80600
O1052       O  0.64052057  0.97432187  0.09139049    -0.84800
O1053       O  0.69705944  0.00641819  0.13176949    -0.79700
O1054       O  0.68017292  0.88415609  0.11262977    -0.81400
O1055       O  0.61837003  0.95402088  0.19495127    -0.84200
C1056       C  0.73002390  0.99665639  0.13760918     0.96600
C1057       C  0.66463075  0.96192081  0.07560830     1.04000
O1058       O  0.66302280  0.94128503  0.14523017    -1.13200
O1059       O  0.58962404  0.91570475  0.14156782    -0.75600
O1060       O  0.58951839  0.97132948  0.13760443    -0.79100
O1061       O  0.73810753  0.96625592  0.14317360    -0.79800
C1062       C  0.57275686  0.94313355  0.13578730     0.95500
O1063       O  0.65028065  0.99745375  0.17991914    -0.77700
O1064       O  0.65191777  0.86696529  0.15168938    -0.82900
C1065       C  0.71113060  0.89979986  0.19660694     0.98100
C1066       C  0.66869727  0.86069236  0.12832246     1.04000
O1067       O  0.72412733  0.90070300  0.17064249    -0.78600
C1068       C  0.63557824  0.98143112  0.20033899     1.02300
Fe1069     Fe  0.64798473  0.48903662  0.38461743     1.65800
Fe1070     Fe  0.63720255  0.56275666  0.41726743     1.73200
Fe1071     Fe  0.71069854  0.54883101  0.37773950     1.54400
O1072       O  0.74146990  0.00561530  0.39353310    -0.82300
O1073       O  0.65202601  0.60779265  0.39601104    -0.80600
O1074       O  0.70047193  0.96642792  0.38057882    -0.84800
O1075       O  0.64194286  0.50089054  0.34059896    -0.79700
O1076       O  0.72740894  0.57389141  0.41858221    -0.81400
O1077       O  0.59155997  0.55733635  0.38803598    -0.84200
C1078       C  0.66593754  0.51303434  0.32445743     0.96600
C1079       C  0.73341323  0.97565164  0.38666740     1.04000
O1080       O  0.66572342  0.53383531  0.39317841    -1.13200
O1081       O  0.62195468  0.52182985  0.44325574    -0.75600
O1082       O  0.65585270  0.97851616  0.43038163    -0.79100
O1083       O  0.69586575  0.52630401  0.33576963    -0.79800
C1084       C  0.64043249  0.49509829  0.44918050     0.95500
O1085       O  0.59274712  0.50181720  0.38813804    -0.77700
O1086       O  0.68029448  0.56871649  0.44755480    -0.82900
C1087       C  0.67066783  0.61381885  0.37354470     0.98100
C1088       C  0.71294915  0.57725539  0.44377421     1.04000
O1089       O  0.68593839  0.59062399  0.36000167    -0.78600
C1090       C  0.57516837  0.52938165  0.38459110     1.02300
Fe1091     Fe  0.84201603  0.73737254  0.10559469     1.65800
Fe1092     Fe  0.85197616  0.66380502  0.07239204     1.73200
Fe1093     Fe  0.77987554  0.67666401  0.11334971     1.54400
O1094       O  0.79490906  0.69972678  0.15491923    -0.82300
O1095       O  0.80827547  0.65826142  0.04264583    -0.80600
O1096       O  0.84821975  0.72594215  0.14935182    -0.84800
O1097       O  0.79003738  0.75746678  0.11134651    -0.79700
O1098       O  0.80604000  0.63536955  0.13093141    -0.81400
O1099       O  0.86683764  0.70495639  0.04641073    -0.84200
C1100       C  0.75713179  0.74767426  0.10565275     0.96600
C1101       C  0.82467418  0.71371592  0.16568073     1.04000
O1102       O  0.82411057  0.69250144  0.09705876    -1.13200
O1103       O  0.89804467  0.66876701  0.10122159    -0.75600
O1104       O  0.89760588  0.72436011  0.10246660    -0.79100
O1105       O  0.74937317  0.71763650  0.09865796    -0.79800
C1106       C  0.91469576  0.69646944  0.10583065     0.95500
O1107       O  0.83475187  0.74844861  0.06141887    -0.77700
O1108       O  0.83733453  0.61841834  0.09340276    -0.82900
C1109       C  0.77616015  0.64853080  0.04698723     0.98100
C1110       C  0.81959075  0.61207559  0.11631889     1.04000
O1111       O  0.76257579  0.65112858  0.07264787    -0.78600
C1112       C  0.84950363  0.73246276  0.04109711     1.02300
Fe1113     Fe  0.14566784  0.72924583  0.39265411     1.65800
Fe1114     Fe  0.13570018  0.80529857  0.42160838     1.73200
Fe1115     Fe  0.20982861  0.78812459  0.38405255     1.54400
O1116       O  0.23889405  0.74708720  0.40053323    -0.82300
O1117       O  0.15351863  0.84924784  0.40046238    -0.80600
O1118       O  0.19746179  0.70703813  0.39090216    -0.84800
O1119       O  0.14309639  0.73678682  0.34803688    -0.79700
O1120       O  0.22569382  0.81404090  0.42464862    -0.81400
O1121       O  0.09134293  0.80031262  0.39109262    -0.84200
C1122       C  0.16762704  0.74812698  0.33206817     0.96600
C1123       C  0.23054288  0.71662466  0.39604749     1.04000
O1124       O  0.16420518  0.77431455  0.39924460    -1.13200
O1125       O  0.11695161  0.76626656  0.44761831    -0.75600
O1126       O  0.14982435  0.72175364  0.43748052    -0.79100
O1127       O  0.19614675  0.76401978  0.34282141    -0.79800
C1128       C  0.13508575  0.74021547  0.45613331     0.95500
O1129       O  0.09035918  0.74460515  0.39245767    -0.77700
O1130       O  0.17775015  0.81044107  0.45293527    -0.82900
C1131       C  0.17269608  0.85396785  0.37816343     0.98100
C1132       C  0.21076992  0.81811575  0.44958469     1.04000
O1133       O  0.18583189  0.82954990  0.36470284    -0.78600
C1134       C  0.07400341  0.77274204  0.38789502     1.02300
Fe1135     Fe  0.34147640  0.98051755  0.10450213     1.65800
Fe1136     Fe  0.35263365  0.90395881  0.07746447     1.73200
Fe1137     Fe  0.27834608  0.92115765  0.11516753     1.54400
O1138       O  0.29303893  0.94608227  0.15589461    -0.82300
O1139       O  0.31010376  0.89642147  0.04690400    -0.80600
O1140       O  0.34556671  0.97358790  0.14914444    -0.84800
O1141       O  0.28963147  0.00214508  0.10734113    -0.79700
O1142       O  0.30224633  0.87983639  0.13498000    -0.81400
O1143       O  0.36950835  0.94246101  0.04981507    -0.84200
C1144       C  0.25661721  0.99223352  0.10290626     0.96600
C1145       C  0.32167607  0.96245102  0.16580049     1.04000
O1146       O  0.32362945  0.93501750  0.09921073    -1.13200
O1147       O  0.39742165  0.91091424  0.10730379    -0.75600
O1148       O  0.39696056  0.96643881  0.10384500    -0.79100
O1149       O  0.24860686  0.96172356  0.09842493    -0.79800
C1150       C  0.41400765  0.93889374  0.10955866     0.95500
O1151       O  0.33608655  0.98692674  0.05942638    -0.77700
O1152       O  0.33694642  0.86068787  0.10033927    -0.82900
C1153       C  0.27680702  0.88964766  0.05022743     0.98100
C1154       C  0.31769935  0.85590438  0.12257169     1.04000
O1155       O  0.26185391  0.89465346  0.07502110    -0.78600
C1156       C  0.35120321  0.96834379  0.04100996     1.02300
Fe1157     Fe  0.14579461  0.73237881  0.14291434     1.65800
Fe1158     Fe  0.13429523  0.65572192  0.17018414     1.73200
Fe1159     Fe  0.20797142  0.67241652  0.13198167     1.54400
O1160       O  0.19399146  0.69868354  0.09169592    -0.82300
O1161       O  0.17693440  0.64797661  0.20073893    -0.80600
O1162       O  0.14130202  0.72569015  0.09817566    -0.84800
O1163       O  0.19797679  0.75307782  0.13983711    -0.79700
O1164       O  0.18256313  0.63229366  0.11162277    -0.81400
O1165       O  0.11788810  0.69440671  0.19776104    -0.84200
C1166       C  0.23078409  0.74268821  0.14463249     0.96600
C1167       C  0.16518797  0.71465475  0.08147425     1.04000
O1168       O  0.16318744  0.68670325  0.14825697    -1.13200
O1169       O  0.08937186  0.66336420  0.14037495    -0.75600
O1170       O  0.09005155  0.71890428  0.14369248    -0.79100
O1171       O  0.23829642  0.71209596  0.14949008    -0.79800
C1172       C  0.07291897  0.69147894  0.13771878     0.95500
O1173       O  0.15169195  0.73863107  0.18806759    -0.77700
O1174       O  0.15030127  0.61213632  0.14737801    -0.82900
C1175       C  0.20965362  0.63982970  0.19666237     0.98100
C1176       C  0.16913120  0.60773444  0.12477670     1.04000
O1177       O  0.22403009  0.64430779  0.17153001    -0.78600
C1178       C  0.13672406  0.71994608  0.20659563     1.02300
Fe1179     Fe  0.34443386  0.48017606  0.35425792     1.65800
Fe1180     Fe  0.35348295  0.55674750  0.32593662     1.73200
Fe1181     Fe  0.28094196  0.53881375  0.36514265     1.54400
O1182       O  0.25215982  0.99777735  0.34855614    -0.82300
O1183       O  0.33703548  0.59992552  0.34900430    -0.80600
O1184       O  0.29367180  0.95796637  0.35938674    -0.84800
O1185       O  0.34900071  0.48746285  0.39889355    -0.79700
O1186       O  0.26376818  0.56677527  0.32575771    -0.81400
O1187       O  0.39899283  0.55050931  0.35516831    -0.84200
C1188       C  0.32481580  0.49798026  0.41551385     0.96600
C1189       C  0.26053587  0.96748094  0.35420996     1.04000
O1190       O  0.32570094  0.52524361  0.34834450    -1.13200
O1191       O  0.37053293  0.51841603  0.29815511    -0.75600
O1192       O  0.33935485  0.97138557  0.31052698    -0.79100
O1193       O  0.29547847  0.51292130  0.40524879    -0.79800
C1194       C  0.35344378  0.49145833  0.29044476     0.95500
O1195       O  0.39958999  0.49500171  0.35310265    -0.77700
O1196       O  0.31016925  0.56341761  0.29585512    -0.82900
C1197       C  0.31900011  0.60381286  0.37210602     0.98100
C1198       C  0.27748720  0.57125165  0.30036322     1.04000
O1199       O  0.30648928  0.57886901  0.38531501    -0.78600
C1200       C  0.41625002  0.52283778  0.35786430     1.02300
C1201       C  0.26171044  0.57516342  0.24561641    -0.26900
C1202       C  0.25654090  0.58736377  0.27454457    -0.15000
C1203       C  0.23756690  0.61783550  0.27749959     0.35600
C1204       C  0.22443933  0.63540944  0.25155948    -0.26400
C1205       C  0.22988079  0.62333390  0.22263326    -0.15600
C1206       C  0.24842721  0.59265681  0.21969659     0.36700
N1207       N  0.25217287  0.57856738  0.19057175    -0.89900
H1208       H  0.27667546  0.55192153  0.24325595     0.17800
H1209       H  0.20945545  0.65864299  0.25389408     0.17800
N1210       N  0.23309332  0.63158615  0.30665532    -0.88900
H1211       H  0.26431269  0.55482313  0.19241854     0.35200
H1212       H  0.27020703  0.59387201  0.17958395     0.40300
H1213       H  0.21551694  0.61564202  0.31745561     0.39900
H1214       H  0.21999240  0.65493057  0.30484347     0.34800
C1215       C  0.30050384  0.79741220  0.10954870    -0.26900
C1216       C  0.30771056  0.82153526  0.13196908    -0.15000
C1217       C  0.29497563  0.81579622  0.16070015     0.35600
C1218       C  0.27146226  0.78849849  0.16517115    -0.26400
C1219       C  0.26101116  0.76672163  0.14164358    -0.15600
C1220       C  0.27675761  0.77033148  0.11394501     0.36700
N1221       N  0.26661100  0.74779492  0.08972865    -0.89900
H1222       H  0.30996905  0.80167979  0.08747211     0.17800
H1223       H  0.25976366  0.78521763  0.18654505     0.17800
N1224       N  0.30414857  0.83895362  0.18464090    -0.88900
H1225       H  0.28115185  0.75343988  0.07107529     0.35200
H1226       H  0.23894544  0.75206644  0.08323042     0.40300
H1227       H  0.33258258  0.83796311  0.18931118     0.39900
H1228       H  0.29230447  0.83143557  0.20415124     0.34800
C1229       C  0.18692402  0.54871112  0.13774977    -0.26900
C1230       C  0.18093338  0.57360457  0.11564206    -0.15000
C1231       C  0.19544035  0.56859224  0.08741919     0.35600
C1232       C  0.21909148  0.54133139  0.08329747    -0.26400
C1233       C  0.22774822  0.51842002  0.10641025    -0.15600
C1234       C  0.21040288  0.52127931  0.13348620     0.36700
N1235       N  0.21628070  0.99511685  0.15564703    -0.89900
H1236       H  0.17610679  0.55222419  0.15942079     0.17800
H1237       H  0.23192667  0.53864861  0.06236151     0.17800
N1238       N  0.18755966  0.59218782  0.06349008    -0.88900
H1239       H  0.19122220  0.98457916  0.16061775     0.35200
H1240       H  0.22730896  0.00750763  0.17476712     0.40300
H1241       H  0.15935053  0.59114676  0.05768136     0.39900
H1242       H  0.20067745  0.58524245  0.04445463     0.34800
C1243       C  0.32254352  0.94425772  0.21895802    -0.26900
C1244       C  0.32845516  0.96934848  0.19792792    -0.15000
C1245       C  0.34480148  0.99991859  0.20753017     0.35600
C1246       C  0.35248504  0.50782791  0.23724583    -0.26400
C1247       C  0.34796750  0.98042862  0.25918956    -0.15600
C1248       C  0.33254102  0.94933880  0.24945588     0.36700
N1249       N  0.32740185  0.92264873  0.27022118    -0.89900
H1250       H  0.31111816  0.92028709  0.21163403     0.17800
H1251       H  0.36205204  0.53256689  0.24413570     0.17800
N1252       N  0.34696315  0.52897939  0.18591582    -0.88900
H1253       H  0.34274233  0.90201183  0.26392502     0.35200
H1254       H  0.29973808  0.91577836  0.26807504     0.40300
H1255       H  0.37456187  0.53613568  0.18715267     0.39900
H1256       H  0.33159547  0.54950531  0.19240869     0.34800
C1257       C  0.33037956  0.00781921  0.00011445    -0.26900
C1258       C  0.34609548  0.97661592  0.00876976    -0.15000
C1259       C  0.37140293  0.96531047  0.48957502     0.35600
C1260       C  0.36362310  0.97280673  0.45920883    -0.26400
C1261       C  0.33165824  0.49141330  0.44784467    -0.15600
C1262       C  0.31829113  0.51241997  0.46989270     0.36700
N1263       N  0.29666980  0.54161092  0.46161970    -0.89900
H1264       H  0.32550011  0.02645753  0.01694138     0.17800
H1265       H  0.38225029  0.96359740  0.44336001     0.17800
N1266       N  0.36851376  0.92044430  0.99428918    -0.88900
H1267       H  0.29181309  0.55581059  0.48052966     0.35200
H1268       H  0.27097182  0.53327228  0.45290348     0.40300
H1269       H  0.39601456  0.92466234  0.00139053     0.39900
H1270       H  0.41822225  0.93956602  0.48072252     0.34800
C1271       C  0.26841852  0.87856593  0.49859472    -0.26900
C1272       C  0.25662459  0.87397587  0.02375646    -0.15000
C1273       C  0.22940686  0.84936745  0.02654751     0.35600
C1274       C  0.21982648  0.82579538  0.50480611    -0.26400
C1275       C  0.23049151  0.83413877  0.47598663    -0.15600
C1276       C  0.25501803  0.86097387  0.47294838     0.36700
N1277       N  0.26564518  0.87083618  0.44389612    -0.89900
H1278       H  0.28944566  0.89990661  0.99263673     0.17800
H1279       H  0.20062469  0.80538956  0.50728117     0.17800
N1280       N  0.21618214  0.84179689  0.05528096    -0.88900
H1281       H  0.28434029  0.89074337  0.44567363     0.35200
H1282       H  0.24227583  0.87998523  0.43170896     0.40300
H1283       H  0.23783701  0.83100947  0.06852054     0.39900
H1284       H  0.19541199  0.82370674  0.05324643     0.34800
C1285       C  0.16265788  0.70369178  0.49685037    -0.26900
C1286       C  0.14055813  0.73160537  0.48821966    -0.15000
C1287       C  0.12398786  0.75427186  0.00996317     0.35600
C1288       C  0.13378028  0.74749902  0.04015308    -0.26400
C1289       C  0.15834006  0.72148994  0.04904054    -0.15600
C1290       C  0.17372888  0.70192888  0.02697306     0.36700
N1291       N  0.19825400  0.67470085  0.03523770    -0.89900
H1292       H  0.17338548  0.68774341  0.47998314     0.17800
H1293       H  0.12182045  0.76273214  0.05692881     0.17800
N1294       N  0.10568017  0.78156439  0.50293609    -0.88900
H1295       H  0.20764088  0.66326640  0.01624580     0.35200
H1296       H  0.18303725  0.65654631  0.04580100     0.40300
H1297       H  0.11936849  0.80256351  0.51219617     0.39900
H1298       H  0.07455618  0.76951940  0.99203289     0.34800
C1299       C  0.15878952  0.75857865  0.24780616    -0.26900
C1300       C  0.14244510  0.72773059  0.23894042    -0.15000
C1301       C  0.13577883  0.70351657  0.26107809     0.35600
C1302       C  0.14595342  0.71054498  0.29109963    -0.26400
C1303       C  0.16198132  0.74131321  0.29983011    -0.15600
C1304       C  0.16837704  0.76558082  0.27803777     0.36700
N1305       N  0.18348385  0.79763216  0.28654996    -0.89900
H1306       H  0.16425514  0.77744903  0.23122683     0.17800
H1307       H  0.14090762  0.69188023  0.30798588     0.17800
N1308       N  0.11943479  0.67160385  0.25319679    -0.88900
H1309       H  0.16475718  0.81616595  0.27896820     0.35200
H1310       H  0.20753855  0.80106418  0.27559757     0.40300
H1311       H  0.09197114  0.67606255  0.24607992     0.39900
H1312       H  0.11906188  0.65594707  0.27195117     0.34800
C1313       C  0.20032289  0.89100355  0.34114265    -0.26900
C1314       C  0.18445505  0.88809184  0.36884875    -0.15000
C1315       C  0.18893863  0.91489807  0.38945375     0.35600
C1316       C  0.21206756  0.94200636  0.38311739    -0.26400
C1317       C  0.23097591  0.94262027  0.35690281    -0.15600
C1318       C  0.22423504  0.91747292  0.33534544     0.36700
N1319       N  0.24283483  0.91821938  0.30816950    -0.89900
H1320       H  0.19664703  0.87096207  0.32489308     0.17800
H1321       H  0.21726026  0.96165580  0.39957261     0.17800
N1322       N  0.17254083  0.91333513  0.41764425    -0.88900
H1323       H  0.23447000  0.89811462  0.29435706     0.35200
H1324       H  0.27075980  0.91459938  0.31405896     0.40300
H1325       H  0.14409714  0.91457026  0.41311946     0.39900
H1326       H  0.17992695  0.93430101  0.43071915     0.34800
C1327       C  0.28134961  0.69245227  0.36915898    -0.26900
C1328       C  0.26037158  0.69179150  0.39423044    -0.15000
C1329       C  0.26578580  0.66578016  0.41529939     0.35600
C1330       C  0.28961691  0.63921647  0.40947027    -0.26400
C1331       C  0.30729460  0.63755376  0.38243796    -0.15600
C1332       C  0.30482806  0.66561553  0.36299138     0.36700
N1333       N  0.32391674  0.66579002  0.33604256    -0.89900
H1334       H  0.27755504  0.71298344  0.35330011     0.17800
H1335       H  0.29201059  0.61836242  0.42508713     0.17800
N1336       N  0.24582292  0.66571414  0.44181242    -0.88900
H1337       H  0.35201661  0.66630983  0.34237993     0.35200
H1338       H  0.31810435  0.68774056  0.32373307     0.40300
H1339       H  0.25434443  0.68663519  0.45453573     0.39900
H1340       H  0.25261327  0.64457201  0.45496516     0.34800
C1341       C  0.97479546  0.66590650  0.11104787    -0.26900
C1342       C  0.95518623  0.69597297  0.11410334    -0.15000
C1343       C  0.97484297  0.72470083  0.12460211     0.35600
C1344       C  0.01300823  0.72277517  0.13168533    -0.26400
C1345       C  0.03256624  0.69259519  0.12878000    -0.15600
C1346       C  0.01286722  0.66395291  0.11814473     0.36700
N1347       N  0.03127308  0.63269791  0.11418886    -0.89900
H1348       H  0.96059418  0.64352818  0.10282274     0.17800
H1349       H  0.02725719  0.74511720  0.13994135     0.17800
N1350       N  0.95626264  0.75585217  0.12864010    -0.88900
H1351       H  0.02680131  0.62565322  0.09175720     0.35200
H1352       H  0.01933040  0.61453450  0.12731065     0.40300
H1353       H  0.96808255  0.77411022  0.11553736     0.39900
H1354       H  0.96076059  0.76285790  0.15107838     0.34800
C1355       C  0.51742045  0.49706925  0.37195015    -0.26900
C1356       C  0.53456396  0.52827683  0.37749727    -0.15000
C1357       C  0.51232726  0.55732960  0.37720852     0.35600
C1358       C  0.47416437  0.55465400  0.37112305    -0.26400
C1359       C  0.45691294  0.52346377  0.36538978    -0.15600
C1360       C  0.47934882  0.49424580  0.36608425     0.36700
N1361       N  0.46474085  0.46122348  0.36094380    -0.89900
H1362       H  0.53371270  0.47431823  0.37221075     0.17800
H1363       H  0.45798417  0.57746134  0.37093511     0.17800
N1364       N  0.52808394  0.58972510  0.38338746    -0.88900
H1365       H  0.45157172  0.46023615  0.33945597     0.35200
H1366       H  0.44607961  0.45599121  0.37694919     0.40300
H1367       H  0.51601885  0.59972004  0.40189692     0.39900
H1368       H  0.52137462  0.60531152  0.36499506     0.34800
C1369       C  0.72439396  0.58264578  0.49892316    -0.26900
C1370       C  0.73260910  0.59343960  0.47010628    -0.15000
C1371       C  0.75347654  0.62287467  0.46732478     0.35600
C1372       C  0.76549307  0.64075235  0.49324789    -0.26400
C1373       C  0.75619689  0.63210405  0.02070231    -0.15600
C1374       C  0.73194006  0.60512067  0.02377317     0.36700
N1375       N  0.72132676  0.59535911  0.05271594    -0.89900
H1376       H  0.70804280  0.56018399  0.50118242     0.17800
H1377       H  0.78203443  0.66310697  0.49101234     0.17800
N1378       N  0.76189237  0.63487083  0.43830391    -0.88900
H1379       H  0.72911391  0.57034711  0.05645602     0.35200
H1380       H  0.69271201  0.59661077  0.05239572     0.40300
H1381       H  0.73717197  0.64153214  0.42667905     0.39900
H1382       H  0.77764606  0.65678844  0.44022216     0.34800
C1383       C  0.47451455  0.96820061  0.10935766    -0.26900
C1384       C  0.45448393  0.93970991  0.11714123    -0.15000
C1385       C  0.47375050  0.91230645  0.13080607     0.35600
C1386       C  0.51211579  0.91383176  0.13619230    -0.26400
C1387       C  0.53221626  0.94228315  0.12830494    -0.15600
C1388       C  0.51298571  0.96970174  0.11444170     0.36700
N1389       N  0.53248067  0.99881152  0.10507147    -0.89900
H1390       H  0.46019457  0.98924528  0.09850321     0.17800
H1391       H  0.52614690  0.89264802  0.14708886     0.17800
N1392       N  0.45453994  0.88302800  0.13980381    -0.88900
H1393       H  0.51425323  0.01688215  0.09573830     0.35200
H1394       H  0.54870759  0.99131074  0.08798922     0.40300
H1395       H  0.46016455  0.87971625  0.16284380     0.39900
H1396       H  0.46493392  0.86226829  0.12894734     0.34800
C1397       C  0.71136719  0.77436098  0.13644432    -0.26900
C1398       C  0.72714197  0.77190739  0.10883744    -0.15000
C1399       C  0.71660660  0.79482925  0.08588725     0.35600
C1400       C  0.69283757  0.82122107  0.09160245    -0.26400
C1401       C  0.68016828  0.82614873  0.12032137    -0.15600
C1402       C  0.68797215  0.80128092  0.14239809     0.36700
N1403       N  0.67430673  0.80433462  0.17144017    -0.89900
H1404       H  0.71900186  0.75646191  0.15408753     0.17800
H1405       H  0.68679293  0.83965545  0.07408608     0.17800
N1406       N  0.73105279  0.79277738  0.05705103    -0.88900
H1407       H  0.65896433  0.78282384  0.17539789     0.35200
H1408       H  0.69669343  0.80486497  0.18732823     0.40300
H1409       H  0.72444331  0.76918164  0.04801950     0.39900
H1410       H  0.75963219  0.79470538  0.05983811     0.34800
C1411       C  0.78163980  0.52403048  0.10850874    -0.26900
C1412       C  0.76333115  0.52175844  0.13494328    -0.15000
C1413       C  0.77141122  0.54506044  0.15786452     0.35600
C1414       C  0.79469237  0.57227739  0.15286518    -0.26400
C1415       C  0.80938537  0.57720865  0.12483462    -0.15600
C1416       C  0.80450512  0.55157247  0.10320841     0.36700
N1417       N  0.82029535  0.55455879  0.07498033    -0.89900
H1418       H  0.77811958  0.00335073  0.09506135     0.17800
H1419       H  0.79866527  0.59116750  0.17016239     0.17800
N1420       N  0.75476812  0.54192297  0.18573465    -0.88900
H1421       H  0.79902612  0.55433217  0.05806646     0.35200
H1422       H  0.83669456  0.53342799  0.07225745     0.40300
H1423       H  0.73970059  0.56375857  0.18901492     0.39900
H1424       H  0.77571816  0.54040113  0.20286011     0.34800
C1425       C  0.62312699  0.97582675  0.03086724    -0.26900
C1426       C  0.65833640  0.96583092  0.04260946    -0.15000
C1427       C  0.68644298  0.96159172  0.02281220     0.35600
C1428       C  0.68175657  0.97521418  0.49240245    -0.26400
C1429       C  0.64635366  0.98475245  0.48127881    -0.15600
C1430       C  0.61782914  0.98583374  0.50055457     0.36700
N1431       N  0.58132741  0.99462512  0.48944386    -0.89900
H1432       H  0.60096553  0.97822314  0.04554297     0.17800
H1433       H  0.70397573  0.97471406  0.47760807     0.17800
N1434       N  0.72263265  0.95109965  0.03372526    -0.88900
H1435       H  0.57315093  0.01557773  0.50130922     0.35200
H1436       H  0.57484140  0.46360235  0.46936882     0.40300
H1437       H  0.73418102  0.97056885  0.04688232     0.39900
H1438       H  0.73947611  0.94804885  0.01601682     0.34800
C1439       C  0.62323289  0.49834857  0.28071255    -0.26900
C1440       C  0.65820841  0.50998780  0.29147364    -0.15000
C1441       C  0.68365070  0.01623799  0.27098036     0.35600
C1442       C  0.67458521  0.00874234  0.24069182    -0.26400
C1443       C  0.64073918  0.99391714  0.23128915    -0.15600
C1444       C  0.61431706  0.98898705  0.25225869     0.36700
N1445       N  0.57805821  0.97695677  0.24388396    -0.89900
H1446       H  0.60177861  0.49456902  0.29587535     0.17800
H1447       H  0.69474960  0.01314893  0.22452704     0.17800
N1448       N  0.71863039  0.03095695  0.27996959    -0.88900
H1449       H  0.57955843  0.95227708  0.23628506     0.35200
H1450       H  0.56638904  0.99216655  0.22666670     0.40300
H1451       H  0.71553173  0.55492840  0.28728400     0.39900
H1452       H  0.73437489  0.03395274  0.26154616     0.34800
C1453       C  0.97285559  0.74746609  0.37589775    -0.26900
C1454       C  0.95641419  0.77743203  0.36500047    -0.15000
C1455       C  0.97903444  0.80593217  0.36204777     0.35600
C1456       C  0.01704579  0.80370064  0.36937464    -0.26400
C1457       C  0.03355796  0.77358122  0.37985915    -0.15600
C1458       C  0.01080237  0.74533717  0.38350945     0.36700
N1459       N  0.02577980  0.71450095  0.39554167    -0.89900
H1460       H  0.95614076  0.72538555  0.37881801     0.17800
H1461       H  0.03372970  0.82584111  0.36663698     0.17800
N1462       N  0.96383252  0.83720422  0.35122458    -0.88900
H1463       H  0.01965300  0.69549686  0.37992037     0.35200
H1464       H  0.01267169  0.70876382  0.41491793     0.40300
H1465       H  0.97677005  0.84396486  0.33201726     0.39900
H1466       H  0.96997119  0.85548610  0.36752960     0.34800
C1467       C  0.74153267  0.87483400  0.27681598    -0.26900
C1468       C  0.75837956  0.84386407  0.27226055    -0.15000
C1469       C  0.76211918  0.83300809  0.24254066     0.35600
C1470       C  0.74892619  0.85292657  0.21821311    -0.26400
C1471       C  0.73138108  0.88353550  0.22267590    -0.15600
C1472       C  0.72801949  0.89469524  0.25254378     0.36700
N1473       N  0.71225935  0.92659608  0.25903250    -0.89900
H1474       H  0.73994431  0.88424238  0.29937355     0.17800
H1475       H  0.75114864  0.84367361  0.19567856     0.17800
N1476       N  0.77903139  0.80143723  0.23689981    -0.88900
H1477       H  0.68428551  0.92648826  0.25237897     0.35200
H1478       H  0.72531011  0.94523220  0.24720382     0.38700
H1479       H  0.80149101  0.80588235  0.22422438     0.39900
H1480       H  0.76011013  0.78680358  0.22404789     0.34800
C1481       C  0.87380731  0.73246988  0.24117335    -0.26900
C1482       C  0.84447623  0.73286014  0.25944647    -0.15000
C1483       C  0.80879120  0.72432827  0.24733446     0.35600
C1484       C  0.80301555  0.71707461  0.21691095    -0.26400
C1485       C  0.83220657  0.71757725  0.19830165    -0.15600
C1486       C  0.86821167  0.72426399  0.21089925     0.36700
N1487       N  0.89928177  0.72269723  0.19312594    -0.89900
H1488       H  0.90124692  0.73847753  0.25045470     0.17800
H1489       H  0.77533148  0.71206277  0.20766169     0.17800
N1490       N  0.77760462  0.72431499  0.26502823    -0.88900
H1491       H  0.91766771  0.70491325  0.20269808     0.35200
H1492       H  0.91228693  0.74609949  0.19402760     0.40300
H1493       H  0.77569594  0.74769104  0.27534638     0.39900
H1494       H  0.78137573  0.70579721  0.28152194     0.34800
C1495       C  0.86512655  0.73419117  0.45812688    -0.26900
C1496       C  0.83179016  0.74990532  0.44815213    -0.15000
C1497       C  0.80607431  0.75719874  0.46917479     0.35600
C1498       C  0.81427271  0.74908141  0.49937250    -0.26400
C1499       C  0.84467445  0.74556212  0.01036328    -0.15600
C1500       C  0.87253142  0.74355464  0.99030917     0.36700
N1501       N  0.90903493  0.73273551  0.99949850    -0.89900
H1502       H  0.88552317  0.72818363  0.44256560     0.17800
H1503       H  0.78869349  0.76086648  0.01573514     0.17800
N1504       N  0.77142856  0.77224878  0.46010986    -0.88900
H1505       H  0.90835152  0.70763680  0.00621392     0.35200
H1506       H  0.91899040  0.74743547  0.01761211     0.40300
H1507       H  0.76925971  0.79467384  0.47193096     0.39900
H1508       H  0.75068426  0.75610536  0.46629461     0.34800
C1509       C  0.77618095  0.93128536  0.40750576    -0.26900
C1510       C  0.76309312  0.95112554  0.38319869    -0.15000
C1511       C  0.77608732  0.94541443  0.35472845     0.35600
C1512       C  0.79991560  0.91827844  0.35064411    -0.26400
C1513       C  0.81015404  0.89620745  0.37430572    -0.15600
C1514       C  0.79961371  0.90393465  0.40331279     0.36700
N1515       N  0.81134200  0.88312051  0.42834415    -0.89900
H1516       H  0.76673349  0.93596044  0.42950590     0.17800
H1517       H  0.80756682  0.91255258  0.32829227     0.17800
N1518       N  0.76375307  0.96635309  0.32978273    -0.88900
H1519       H  0.82540085  0.89822754  0.44440755     0.35200
H1520       H  0.78800079  0.87362006  0.43763729     0.40300
H1521       H  0.73563766  0.96217860  0.32533309     0.39900
H1522       H  0.77628429  0.95921726  0.31052010     0.34800
C1523       C  0.71775094  0.68190731  0.33264299    -0.26900
C1524       C  0.72759699  0.70344575  0.35644794    -0.15000
C1525       C  0.71058318  0.69965627  0.38363520     0.35600
C1526       C  0.68651978  0.67274088  0.38734513    -0.26400
C1527       C  0.68023717  0.64860616  0.36477639    -0.15600
C1528       C  0.69404712  0.65471108  0.33648321     0.36700
N1529       N  0.68576995  0.63213004  0.31207676    -0.89900
H1530       H  0.72998219  0.68509392  0.31149296     0.17800
H1531       H  0.67623139  0.66864405  0.40916043     0.17800
N1532       N  0.71940242  0.72133448  0.40857187    -0.88900
H1533       H  0.71047346  0.62239790  0.30540121     0.35200
H1534       H  0.67344895  0.64594938  0.29418594     0.40300
H1535       H  0.71348220  0.74602980  0.40187832     0.39900
H1536       H  0.74755164  0.71948300  0.41441754     0.34800
Fe1537     Fe  0.83889891  0.73899957  0.85709945     1.65800
Fe1538     Fe  0.85125976  0.81062157  0.82130907     1.73200
Fe1539     Fe  0.77917207  0.80230380  0.86323444     1.54400
O1540       O  0.74648912  0.76162052  0.85084660    -0.82300
O1541       O  0.83622410  0.85763736  0.83857252    -0.80600
O1542       O  0.78613953  0.72019297  0.86166706    -0.84800
O1543       O  0.84392978  0.75120800  0.90096273    -0.79700
O1544       O  0.76327127  0.82565931  0.82141731    -0.81400
O1545       O  0.89657380  0.80698611  0.85109024    -0.84200
C1546       C  0.82142310  0.76572320  0.91694827     0.96600
C1547       C  0.75350191  0.73100821  0.85655522     1.04000
O1548       O  0.82256515  0.78399240  0.84733812    -1.13200
O1549       O  0.86732940  0.76822372  0.79822219    -0.75600
O1550       O  0.83260808  0.72674739  0.81281644    -0.79100
O1551       O  0.79300388  0.78140920  0.90577010    -0.79800
C1552       C  0.84805044  0.74206460  0.79240404     0.95500
O1553       O  0.89484916  0.75144757  0.85497340    -0.77700
O1554       O  0.80774302  0.81369922  0.79121052    -0.82900
C1555       C  0.81975552  0.86577886  0.86161279     0.98100
C1556       C  0.77640984  0.82536389  0.79551177     1.04000
O1557       O  0.80757456  0.84371102  0.87846847    -0.78600
C1558       C  0.91262810  0.77915607  0.85685188     1.02300
Fe1559     Fe  0.64789454  0.98644816  0.63563030     1.65800
Fe1560     Fe  0.63864013  0.91188569  0.66732028     1.73200
Fe1561     Fe  0.71140911  0.92699991  0.62747729     1.54400
O1562       O  0.69689416  0.95058472  0.58619584    -0.82300
O1563       O  0.68172361  0.90705928  0.69734231    -0.80600
O1564       O  0.64328218  0.97652214  0.59126453    -0.84800
O1565       O  0.69963196  0.00778437  0.63129137    -0.79700
O1566       O  0.68629059  0.88552789  0.60939907    -0.81400
O1567       O  0.62172088  0.95181367  0.69341992    -0.84200
C1568       C  0.73273870  0.99827239  0.63648330     0.96600
C1569       C  0.66760776  0.96509101  0.57516262     1.04000
O1570       O  0.66651219  0.94170094  0.64344284    -1.13200
O1571       O  0.59322601  0.91632890  0.63796884    -0.75600
O1572       O  0.59255440  0.97195262  0.63772168    -0.79100
O1573       O  0.74110358  0.96809518  0.64258957    -0.79800
C1574       C  0.57594845  0.94383965  0.63424984     0.95500
O1575       O  0.65364341  0.99613768  0.68036253    -0.77700
O1576       O  0.65499451  0.86733847  0.64653616    -0.82900
C1577       C  0.71429842  0.89869419  0.69344432     0.98100
C1578       C  0.67332362  0.86173711  0.62389867     1.04000
O1579       O  0.72837487  0.90140191  0.66803763    -0.78600
C1580       C  0.63843425  0.97923355  0.70002340     1.02300
Fe1581     Fe  0.64612385  0.48933432  0.88321207     1.65800
Fe1582     Fe  0.63451816  0.56262891  0.91661330     1.73200
Fe1583     Fe  0.70779478  0.55047470  0.87639317     1.54400
O1584       O  0.73937215  0.00858523  0.89140905    -0.82300
O1585       O  0.64896845  0.60837259  0.89618717    -0.80600
O1586       O  0.69826608  0.96971799  0.87783730    -0.84800
O1587       O  0.64022801  0.50109802  0.83920052    -0.79700
O1588       O  0.72426704  0.57511466  0.91768572    -0.81400
O1589       O  0.58893130  0.55716592  0.88728647    -0.84200
C1590       C  0.66374472  0.51382817  0.82295738     0.96600
C1591       C  0.73135232  0.97903747  0.88303512     1.04000
O1592       O  0.66325775  0.53438887  0.89201143    -1.13200
O1593       O  0.61951268  0.52117387  0.94213563    -0.75600
O1594       O  0.65563327  0.97881531  0.93004811    -0.79100
O1595       O  0.69306245  0.52832831  0.83411858    -0.79800
C1596       C  0.63816930  0.49452168  0.94798883     0.95500
O1597       O  0.59065449  0.50153637  0.88615119    -0.77700
O1598       O  0.67764534  0.56859920  0.94694902    -0.82900
C1599       C  0.66745477  0.61527984  0.87381604     0.98100
C1600       C  0.70997025  0.57811633  0.94303849     1.04000
O1601       O  0.68228208  0.59249772  0.85940619    -0.78600
C1602       C  0.57297349  0.52908111  0.88303288     1.02300
Fe1603     Fe  0.84399765  0.73376671  0.60483403     1.65800
Fe1604     Fe  0.85278647  0.65824828  0.57502463     1.73200
Fe1605     Fe  0.78005660  0.67526843  0.61412316     1.54400
O1606       O  0.79500388  0.69905484  0.65542438    -0.82300
O1607       O  0.81008286  0.65376575  0.54434509    -0.80600
O1608       O  0.84814821  0.72525128  0.64942483    -0.84800
O1609       O  0.79276736  0.75605986  0.60806180    -0.79700
O1610       O  0.80465497  0.63387876  0.63294450    -0.81400
O1611       O  0.87112822  0.69739466  0.54879948    -0.84200
C1612       C  0.75964961  0.74677516  0.60285462     0.96600
C1613       C  0.82454301  0.71355340  0.66605974     1.04000
O1614       O  0.82505477  0.68902878  0.59807111    -1.13200
O1615       O  0.89736020  0.66257544  0.60527444    -0.75600
O1616       O  0.89878796  0.71818407  0.60370319    -0.79100
O1617       O  0.75094350  0.71645704  0.59803312    -0.79800
C1618       C  0.91470950  0.69003606  0.60899462     0.95500
O1619       O  0.83843902  0.74180616  0.55995551    -0.77700
O1620       O  0.83518867  0.61433814  0.59610480    -0.82900
C1621       C  0.77730503  0.64580653  0.54831108     0.98100
C1622       C  0.81682741  0.60950986  0.61883864     1.04000
O1623       O  0.76312534  0.64941950  0.57363053    -0.78600
C1624       C  0.85308692  0.72373280  0.54092570     1.02300
Fe1625     Fe  0.14279012  0.73044168  0.89192589     1.65800
Fe1626     Fe  0.13339028  0.80765310  0.91837119     1.73200
Fe1627     Fe  0.20784421  0.78785125  0.88202908     1.54400
O1628       O  0.23600891  0.74675867  0.89973004    -0.82300
O1629       O  0.15014205  0.85027245  0.89463027    -0.80600
O1630       O  0.19414012  0.70767814  0.88860060    -0.84800
O1631       O  0.13885056  0.73766426  0.84733359    -0.79700
O1632       O  0.22437876  0.81530211  0.92175661    -0.81400
O1633       O  0.08872544  0.80072099  0.88852377    -0.84200
C1634       C  0.16354502  0.74785377  0.83095370     0.96600
C1635       C  0.22739261  0.71663657  0.89382576     1.04000
O1636       O  0.16188703  0.77552022  0.89741256    -1.13200
O1637       O  0.11644105  0.76977051  0.94685754    -0.75600
O1638       O  0.14826345  0.72423695  0.93694067    -0.79100
O1639       O  0.19305403  0.76238126  0.84161537    -0.79800
C1640       C  0.13413593  0.74338522  0.95550994     0.95500
O1641       O  0.08748236  0.74542035  0.89289882    -0.77700
O1642       O  0.17537999  0.81553363  0.94901274    -0.82900
C1643       C  0.17046405  0.85392573  0.87285597     0.98100
C1644       C  0.20882282  0.82168807  0.94603270     1.04000
O1645       O  0.18520897  0.82902859  0.86128172    -0.78600
C1646       C  0.07115126  0.77323190  0.88689638     1.02300
Fe1647     Fe  0.34385813  0.97809929  0.60638318     1.65800
Fe1648     Fe  0.35450595  0.90155008  0.57896199     1.73200
Fe1649     Fe  0.28141285  0.91872576  0.61807252     1.54400
O1650       O  0.29701616  0.94418344  0.65823172    -0.82300
O1651       O  0.31125551  0.89353810  0.54949408    -0.80600
O1652       O  0.34983942  0.97106376  0.65099709    -0.84800
O1653       O  0.29216436  0.99940328  0.61119584    -0.79700
O1654       O  0.30655504  0.87803878  0.63783169    -0.81400
O1655       O  0.36963516  0.94003907  0.55022165    -0.84200
C1656       C  0.25907413  0.98958629  0.60709152     0.96600
C1657       C  0.32583924  0.96045687  0.66779662     1.04000
O1658       O  0.32610237  0.93259024  0.60124450    -1.13200
O1659       O  0.40042298  0.90910353  0.60765729    -0.75600
O1660       O  0.39924057  0.96456492  0.60400318    -0.79100
O1661       O  0.25109240  0.95923441  0.60152020    -0.79800
C1662       C  0.41678664  0.93725232  0.60950102     0.95500
O1663       O  0.33664685  0.98456400  0.56135912    -0.77700
O1664       O  0.33928284  0.85806729  0.60235625    -0.82900
C1665       C  0.27829587  0.88628213  0.55352980     0.98100
C1666       C  0.32005511  0.85358952  0.62471831     1.04000
O1667       O  0.26392326  0.89136833  0.57855383    -0.78600
C1668       C  0.35174341  0.96662046  0.54242279     1.02300
Fe1669     Fe  0.14393683  0.72839737  0.64193680     1.65800
Fe1670     Fe  0.13466465  0.65265265  0.67166290     1.73200
Fe1671     Fe  0.20775125  0.66982875  0.63261415     1.54400
O1672       O  0.19311202  0.69427044  0.59176029    -0.82300
O1673       O  0.17749689  0.64801292  0.70199061    -0.80600
O1674       O  0.13963607  0.72032492  0.59757704    -0.84800
O1675       O  0.19531881  0.75071935  0.63839432    -0.79700
O1676       O  0.18401346  0.62784261  0.61383072    -0.81400
O1677       O  0.11671837  0.69171000  0.69827291    -0.84200
C1678       C  0.22840060  0.74123272  0.64356490     0.96600
C1679       C  0.16415029  0.70974461  0.58130510     1.04000
O1680       O  0.16248011  0.68341477  0.64845769    -1.13200
O1681       O  0.08952521  0.65749936  0.64194698    -0.75600
O1682       O  0.08911126  0.71315923  0.64332701    -0.79100
O1683       O  0.23674074  0.71089990  0.64881975    -0.79800
C1684       C  0.07250064  0.68521663  0.63875559     0.95500
O1685       O  0.14965054  0.73605328  0.68662160    -0.77700
O1686       O  0.15220122  0.60865432  0.65038219    -0.82900
C1687       C  0.21042227  0.64065867  0.69810398     0.98100
C1688       C  0.17094528  0.60365677  0.62783332     1.04000
O1689       O  0.22455548  0.64423106  0.67283582    -0.78600
C1690       C  0.13471917  0.71821188  0.70570985     1.02300
Fe1691     Fe  0.34220636  0.47875000  0.85436856     1.65800
Fe1692     Fe  0.35270974  0.55473039  0.82541329     1.73200
Fe1693     Fe  0.28018540  0.53916550  0.86502936     1.54400
O1694       O  0.25044974  0.99780718  0.84662019    -0.82300
O1695       O  0.33551589  0.59889456  0.84684286    -0.80600
O1696       O  0.29190494  0.95804084  0.85743023    -0.84800
O1697       O  0.34542612  0.48524656  0.89921828    -0.79700
O1698       O  0.26436191  0.56701240  0.82559421    -0.81400
O1699       O  0.39765993  0.54914420  0.85493479    -0.84200
C1700       C  0.32118265  0.49648380  0.91546378     0.96600
C1701       C  0.25889152  0.96738415  0.85134456     1.04000
O1702       O  0.32458209  0.52412584  0.84840774    -1.13200
O1703       O  0.37055724  0.51595068  0.79845672    -0.75600
O1704       O  0.33988726  0.97304716  0.81102052    -0.79100
O1705       O  0.29314153  0.51322621  0.90516168    -0.79800
C1706       C  0.35333341  0.48913630  0.79066574     0.95500
O1707       O  0.39782390  0.49333307  0.85409847    -0.77700
O1708       O  0.30975970  0.55981072  0.79540885    -0.82900
C1709       C  0.31774423  0.60357730  0.86997454     0.98100
C1710       C  0.27792743  0.56992958  0.80002610     1.04000
O1711       O  0.30717119  0.57892742  0.88472468    -0.78600
C1712       C  0.41466595  0.52135643  0.85771325     1.02300
C1713       C  0.27054798  0.58151873  0.74559313    -0.26900
C1714       C  0.25830463  0.58726450  0.77435392    -0.15000
C1715       C  0.23220488  0.61267653  0.77804009     0.35600
C1716       C  0.21904345  0.63151098  0.75298064    -0.26400
C1717       C  0.23095038  0.62524354  0.72421496    -0.15600
C1718       C  0.25741823  0.60037110  0.72074669     0.36700
N1719       N  0.27031819  0.59344214  0.69195140    -0.89900
H1720       H  0.29084745  0.56229771  0.74224315     0.17800
H1721       H  0.19862919  0.65077570  0.75583251     0.17800
N1722       N  0.21984313  0.61993936  0.80709129    -0.88900
H1723       H  0.26452111  0.56835389  0.68677390     0.35200
H1724       H  0.29881399  0.59650414  0.69341165     0.40300
H1725       H  0.20415527  0.59950088  0.81339885     0.39900
H1726       H  0.20228788  0.64071703  0.80607492     0.34800
C1727       C  0.30107488  0.79534794  0.61093392    -0.26900
C1728       C  0.30758433  0.81953127  0.63345449    -0.15000
C1729       C  0.29226970  0.81444680  0.66137378     0.35600
C1730       C  0.26744721  0.78786932  0.66476888    -0.26400
C1731       C  0.25819242  0.76594297  0.64111273    -0.15600
C1732       C  0.27604160  0.76891161  0.61431023     0.36700
N1733       N  0.26708066  0.74618653  0.58998534    -0.89900
H1734       H  0.31245947  0.79899477  0.58948215     0.17800
H1735       H  0.25422910  0.78499463  0.68552646     0.17800
N1736       N  0.30047555  0.83741450  0.68564558    -0.88900
H1737       H  0.28275210  0.75155404  0.57192897     0.35200
H1738       H  0.23971205  0.75045855  0.58245441     0.40300
H1739       H  0.32854044  0.83545279  0.69182811     0.39900
H1740       H  0.28669878  0.83049011  0.70438564     0.34800
C1741       C  0.19245402  0.54611054  0.64248578    -0.26900
C1742       C  0.18271234  0.56925616  0.61951877    -0.15000
C1743       C  0.19326629  0.56247262  0.59025966     0.35600
C1744       C  0.21616265  0.53480031  0.58531861    -0.26400
C1745       C  0.22825726  0.51349495  0.60888410    -0.15600
C1746       C  0.21530613  0.51854204  0.63741345     0.36700
N1747       N  0.23031705  0.99943626  0.66485787    -0.89900
H1748       H  0.18510398  0.55099024  0.66508336     0.17800
H1749       H  0.22593850  0.53072814  0.56334494     0.17800
N1750       N  0.18218637  0.58473884  0.56597074    -0.88900
H1751       H  0.21848253  0.00684331  0.68437049     0.35200
H1752       H  0.25849162  0.00360954  0.66859849     0.40300
H1753       H  0.15358439  0.58355912  0.56275417     0.39900
H1754       H  0.19254952  0.57660216  0.54607300     0.34800
C1755       C  0.33020020  0.94284973  0.72087396    -0.26900
C1756       C  0.33215822  0.96838251  0.69960799    -0.15000
C1757       C  0.34375206  0.00086709  0.70855825     0.35600
C1758       C  0.35150966  0.50497318  0.73728050    -0.26400
C1759       C  0.35062594  0.98186847  0.76039920    -0.15600
C1760       C  0.33967710  0.94918773  0.75117009     0.36700
N1761       N  0.33856263  0.92223207  0.77232851    -0.89900
H1762       H  0.32222919  0.91769605  0.71386211     0.17800
H1763       H  0.35937928  0.53016648  0.74418267     0.17800
N1764       N  0.34388263  0.52540510  0.68537819    -0.88900
H1765       H  0.35640950  0.90341121  0.76605766     0.35200
H1766       H  0.31200521  0.91233222  0.77078553     0.40300
H1767       H  0.35297696  0.54770701  0.69571293     0.39900
H1768       H  0.31720168  0.52988696  0.67622187     0.34800
C1769       C  0.31659750  0.99607933  0.50069004    -0.26900
C1770       C  0.34729986  0.97660239  0.51056123    -0.15000
C1771       C  0.35236751  0.95254260  0.98657398     0.35600
C1772       C  0.34199037  0.95992869  0.95666478    -0.26400
C1773       C  0.32639069  0.48899895  0.94754614    -0.15600
C1774       C  0.31914020  0.51285244  0.96932931     0.36700
N1775       N  0.30352860  0.54479423  0.96087231    -0.89900
H1776       H  0.29770576  0.00483526  0.51655324     0.17800
H1777       H  0.34672440  0.94141136  0.93966820     0.17800
N1778       N  0.40370755  0.94635111  0.49905719    -0.88900
H1779       H  0.32170753  0.56353128  0.96885121     0.35200
H1780       H  0.27913442  0.54757161  0.97147801     0.40300
H1781       H  0.42097437  0.96211291  0.51233434     0.39900
H1782       H  0.36872057  0.90499970  0.97546287     0.34800
C1783       C  0.26876375  0.88078901  0.99507469    -0.26900
C1784       C  0.25797211  0.87016432  0.52743763    -0.15000
C1785       C  0.23337857  0.84335717  0.53051642     0.35600
C1786       C  0.21575582  0.83174285  0.00094323    -0.26400
C1787       C  0.22834722  0.83815076  0.97235528    -0.15600
C1788       C  0.25470560  0.86347810  0.96939489     0.36700
N1789       N  0.26639629  0.87221891  0.94039325    -0.89900
H1790       H  0.28748762  0.89905798  0.49603882     0.17800
H1791       H  0.19491761  0.81274087  0.00335904     0.17800
N1792       N  0.22282242  0.83355873  0.55959340    -0.88900
H1793       H  0.28622518  0.89118616  0.94220098     0.35200
H1794       H  0.24375568  0.88230644  0.92782976     0.40300
H1795       H  0.24626339  0.82461640  0.57177913     0.39900
H1796       H  0.20430304  0.81350487  0.55786165     0.34800
C1797       C  0.16445369  0.70905124  0.99667280    -0.26900
C1798       C  0.13975821  0.73504202  0.98779179    -0.15000
C1799       C  0.12747750  0.75242752  0.51048247     0.35600
C1800       C  0.13630979  0.74489836  0.54050675    -0.26400
C1801       C  0.15806959  0.71693705  0.54913094    -0.15600
C1802       C  0.17155807  0.69612557  0.52709099     0.36700
N1803       N  0.19370501  0.66727601  0.53536738    -0.89900
H1804       H  0.17699803  0.69425196  0.97990983     0.17800
H1805       H  0.12609631  0.76137689  0.55724754     0.17800
N1806       N  0.09827299  0.78071762  0.00197098    -0.88900
H1807       H  0.20190401  0.65499726  0.51634713     0.35200
H1808       H  0.17715427  0.65039239  0.54615714     0.40300
H1809       H  0.09037544  0.79312328  0.02101703     0.39900
H1810       H  0.08073371  0.77915301  0.51281626     0.34800
C1811       C  0.17503256  0.74051710  0.74741409    -0.26900
C1812       C  0.14051412  0.72775839  0.73726654    -0.15000
C1813       C  0.11367597  0.72256803  0.75757462     0.35600
C1814       C  0.12178735  0.72995163  0.78775929    -0.26400
C1815       C  0.15675096  0.74184948  0.79839155    -0.15600
C1816       C  0.18374444  0.74712328  0.77782172     0.36700
N1817       N  0.21999632  0.75835815  0.78770069    -0.89900
H1818       H  0.19591320  0.74399992  0.73167023     0.17800
H1819       H  0.10037373  0.72600389  0.80292473     0.17800
N1820       N  0.07803767  0.71023340  0.74762326    -0.88900
H1821       H  0.23589652  0.76207906  0.76947732     0.35200
H1822       H  0.23263543  0.73895662  0.80040267     0.40300
H1823       H  0.05855435  0.72787997  0.75334796     0.39900
H1824       H  0.07341361  0.68802095  0.75927253     0.34800
C1825       C  0.20259055  0.88869786  0.83666009    -0.26900
C1826       C  0.18201745  0.88764468  0.86218407    -0.15000
C1827       C  0.18165941  0.91647201  0.88051248     0.35600
C1828       C  0.20520889  0.94356278  0.87504854    -0.26400
C1829       C  0.22927866  0.94218275  0.85198429    -0.15600
C1830       C  0.22697506  0.91513252  0.83191662     0.36700
N1831       N  0.25014363  0.91412675  0.80731922    -0.89900
H1832       H  0.20232610  0.86729172  0.82177384     0.17800
H1833       H  0.20666246  0.96483172  0.89012436     0.17800
N1834       N  0.15954550  0.91726450  0.90575876    -0.88900
H1835       H  0.24431354  0.89293632  0.79408884     0.35200
H1836       H  0.27718814  0.91134023  0.81626229     0.40300
H1837       H  0.13207043  0.91685027  0.89742606     0.39900
H1838       H  0.16338841  0.93982813  0.91743862     0.34800
C1839       C  0.27244668  0.68933128  0.86272059    -0.26900
C1840       C  0.25681968  0.69163566  0.89039404    -0.15000
C1841       C  0.26707639  0.66829490  0.91305084     0.35600
C1842       C  0.29072148  0.64159583  0.90687029    -0.26400
C1843       C  0.30401941  0.63742960  0.87826096    -0.15600
C1844       C  0.29577822  0.66249441  0.85641119     0.36700
N1845       N  0.30890417  0.65972256  0.82714639    -0.89900
H1846       H  0.26485257  0.70746257  0.84527363     0.17800
H1847       H  0.29690818  0.62272502  0.92397095     0.17800
N1848       N  0.25212084  0.67094558  0.94175802    -0.88900
H1849       H  0.32397757  0.68136170  0.82306108     0.35200
H1850       H  0.28624414  0.65907716  0.81152122     0.40300
H1851       H  0.26175379  0.69336909  0.95153100     0.39900
H1852       H  0.26198249  0.65154282  0.95591868     0.34800
C1853       C  0.97351554  0.65821134  0.61775085    -0.26900
C1854       C  0.95481947  0.68910471  0.61793554    -0.15000
C1855       C  0.97514535  0.71855093  0.62540503     0.35600
C1856       C  0.01333468  0.71644689  0.63152464    -0.26400
C1857       C  0.03209243  0.68562966  0.63103012    -0.15600
C1858       C  0.01164064  0.65618257  0.62418849     0.36700
N1859       N  0.02927289  0.62409648  0.62344569    -0.89900
H1860       H  0.95860643  0.63530291  0.61213471     0.17800
H1861       H  0.02844168  0.73923459  0.63713328     0.17800
N1862       N  0.95717432  0.75057133  0.62690894    -0.88900
H1863       H  0.02384500  0.61394913  0.60208356     0.35200
H1864       H  0.01750133  0.60832468  0.63881564     0.40300
H1865       H  0.97624051  0.76972906  0.63174623     0.39900
H1866       H  0.94050425  0.74962838  0.64489854     0.34800
C1867       C  0.51707175  0.49996022  0.86029960    -0.26900
C1868       C  0.53260706  0.52788613  0.87559959    -0.15000
C1869       C  0.50908339  0.55338773  0.88475437     0.35600
C1870       C  0.47096018  0.55028150  0.87903786    -0.26400
C1871       C  0.45525172  0.52214747  0.86420663    -0.15600
C1872       C  0.47898596  0.49691938  0.85430365     0.36700
N1873       N  0.46558688  0.46851512  0.83727175    -0.89900
H1874       H  0.53470734  0.48034252  0.85268604     0.17800
H1875       H  0.45349288  0.57008185  0.88654589     0.17800
N1876       N  0.52359170  0.58219528  0.90058727    -0.88900
H1877       H  0.45000900  0.47709807  0.81827904     0.35200
H1878       H  0.44905454  0.45403860  0.85039086     0.40300
H1879       H  0.51211458  0.58312900  0.92129190     0.39900
H1880       H  0.51518227  0.60362263  0.88841176     0.34800
C1881       C  0.71884416  0.58695483  0.99830593    -0.26900
C1882       C  0.72940480  0.59497549  0.96935747    -0.15000
C1883       C  0.75352503  0.62217364  0.96618602     0.35600
C1884       C  0.76659799  0.64027007  0.99175728    -0.26400
C1885       C  0.75718295  0.63000197  0.52205222    -0.15600
C1886       C  0.73643429  0.60052252  0.52485245     0.36700
N1887       N  0.72910531  0.58796398  0.55395200    -0.89900
H1888       H  0.70002451  0.56636034  0.00126388     0.17800
H1889       H  0.78539757  0.66092527  0.98903428     0.17800
N1890       N  0.76420915  0.63181733  0.93710211    -0.88900
H1891       H  0.71524481  0.56499664  0.55214495     0.35200
H1892       H  0.71125733  0.60485434  0.56325362     0.40300
H1893       H  0.74076688  0.64049798  0.92473041     0.39900
H1894       H  0.78253221  0.65201263  0.93875366     0.34800
C1895       C  0.47625579  0.96900528  0.61241317    -0.26900
C1896       C  0.45744355  0.93867758  0.61668237    -0.15000
C1897       C  0.47805724  0.91033292  0.62685343     0.35600
C1898       C  0.51638635  0.91263395  0.63189567    -0.26400
C1899       C  0.53527262  0.94283244  0.62737329    -0.15600
C1900       C  0.51471452  0.97142405  0.61750626     0.36700
N1901       N  0.53276385  0.00279334  0.61240377    -0.89900
H1902       H  0.46097499  0.99099936  0.60454140     0.17800
H1903       H  0.53136112  0.89050358  0.63988869     0.17800
N1904       N  0.46032168  0.87913515  0.63259531    -0.88900
H1905       H  0.51363155  0.02147459  0.60602076     0.35200
H1906       H  0.54890009  0.99943859  0.59429128     0.40300
H1907       H  0.46661344  0.87268161  0.65502179     0.39900
H1908       H  0.47128575  0.86066918  0.61928988     0.34800
C1909       C  0.71322183  0.77433533  0.63191413    -0.26900
C1910       C  0.73035729  0.77187959  0.60496499    -0.15000
C1911       C  0.72206850  0.79561641  0.58216171     0.35600
C1912       C  0.69882949  0.82258690  0.58745900    -0.26400
C1913       C  0.68465257  0.82725142  0.61566952    -0.15600
C1914       C  0.69068683  0.80188494  0.63757782     0.36700
N1915       N  0.67639007  0.80512272  0.66637272    -0.89900
H1916       H  0.71937783  0.75597347  0.64948284     0.17800
H1917       H  0.69433318  0.84152751  0.57015519     0.17800
N1918       N  0.73807447  0.79365051  0.55394381    -0.88900
H1919       H  0.66016779  0.78405132  0.66990019     0.35200
H1920       H  0.69842125  0.80487931  0.68260248     0.40300
H1921       H  0.73108061  0.77044426  0.54428447     0.39900
H1922       H  0.76661836  0.79463704  0.55779314     0.34800
C1923       C  0.78193476  0.51994151  0.61269334    -0.26900
C1924       C  0.75932438  0.51938619  0.63671142    -0.15000
C1925       C  0.76183701  0.54529513  0.65780896     0.35600
C1926       C  0.78512788  0.57256416  0.65361929    -0.26400
C1927       C  0.80468288  0.57539704  0.62764795    -0.15600
C1928       C  0.80423994  0.54792331  0.60772438     0.36700
N1929       N  0.82416567  0.54920850  0.58136210    -0.89900
H1930       H  0.77435399  0.00583133  0.58978958     0.17800
H1931       H  0.78533435  0.59295425  0.66959479     0.17800
N1932       N  0.73947101  0.54467621  0.68279799    -0.88900
H1933       H  0.80539832  0.54681228  0.56273112     0.35200
H1934       H  0.84187142  0.52856193  0.58176801     0.40300
H1935       H  0.72298219  0.56616344  0.68176330     0.39900
H1936       H  0.75677037  0.54588194  0.70240208     0.34800
C1937       C  0.62521924  0.97802670  0.53082351    -0.26900
C1938       C  0.66101073  0.96979731  0.54245617    -0.15000
C1939       C  0.68945846  0.96812569  0.52284692     0.35600
C1940       C  0.67906057  0.96901063  0.99226101    -0.26400
C1941       C  0.64467010  0.98136960  0.98126662    -0.15600
C1942       C  0.61609245  0.98379160  0.00051751     0.36700
N1943       N  0.58016812  0.99464441  0.98921671    -0.89900
H1944       H  0.60275986  0.97900793  0.54534361     0.17800
H1945       H  0.70096389  0.96709167  0.97726431     0.17800
N1946       N  0.72637955  0.96063221  0.53377213    -0.88900
H1947       H  0.56220504  0.99523128  0.00637215     0.35200
H1948       H  0.57009015  0.47145660  0.97255975     0.40300
H1949       H  0.74300090  0.98091903  0.52862791     0.39900
H1950       H  0.73509734  0.93957725  0.52232932     0.34800
C1951       C  0.62092668  0.49836916  0.77950564    -0.26900
C1952       C  0.65610115  0.50981973  0.79003961    -0.15000
C1953       C  0.67845445  0.02093177  0.77090088     0.35600
C1954       C  0.67133937  0.01212313  0.74071364    -0.26400
C1955       C  0.64149998  0.99130834  0.73135776    -0.15600
C1956       C  0.61709471  0.98099626  0.75268420     0.36700
N1957       N  0.58499557  0.96128422  0.74497948    -0.89900
H1958       H  0.59924717  0.49589108  0.79465423     0.17800
H1959       H  0.69022510  0.02065507  0.72471583     0.17800
N1960       N  0.70942607  0.04168154  0.77950240    -0.88900
H1961       H  0.59290301  0.93746289  0.73816508     0.35200
H1962       H  0.56942227  0.97321281  0.72754954     0.40300
H1963       H  0.71500892  0.55272267  0.78454682     0.39900
H1964       H  0.73302868  0.02967812  0.77301147     0.34800
C1965       C  0.96997423  0.74784568  0.87388478    -0.26900
C1966       C  0.95320816  0.77841325  0.86483670    -0.15000
C1967       C  0.97576692  0.80724108  0.86294658     0.35600
C1968       C  0.01384600  0.80469205  0.87020490    -0.26400
C1969       C  0.03059034  0.77405995  0.87901173    -0.15600
C1970       C  0.00803608  0.74539405  0.88092736     0.36700
N1971       N  0.02337053  0.71365827  0.89033068    -0.89900
H1972       H  0.95346026  0.72542163  0.87561517     0.17800
H1973       H  0.03061844  0.82696381  0.86862778     0.17800
N1974       N  0.96030083  0.83905929  0.85343844    -0.88900
H1975       H  0.01705183  0.69622265  0.87333095     0.35200
H1976       H  0.01067308  0.70586541  0.90936124     0.40300
H1977       H  0.95166686  0.83695017  0.83075400     0.39900
H1978       H  0.98026731  0.85790537  0.85484091     0.34800
C1979       C  0.74078952  0.87329347  0.77355752    -0.26900
C1980       C  0.75736885  0.84217354  0.76941722    -0.15000
C1981       C  0.76231016  0.83108597  0.73997082     0.35600
C1982       C  0.75094086  0.85138244  0.71537547    -0.26400
C1983       C  0.73396045  0.88236970  0.71950556    -0.15600
C1984       C  0.72909049  0.89343964  0.74912464     0.36700
N1985       N  0.71322875  0.92542652  0.75521478    -0.89900
H1986       H  0.73792681  0.88258017  0.79598902     0.17800
H1987       H  0.75387542  0.84213806  0.69293385     0.17800
N1988       N  0.77844422  0.79895026  0.73497091    -0.88900
H1989       H  0.68542620  0.92549901  0.74798069     0.35200
H1990       H  0.72683743  0.94404402  0.74380162     0.38700
H1991       H  0.80171399  0.80264601  0.72306672     0.39900
H1992       H  0.75963459  0.78475023  0.72160123     0.34800
C1993       C  0.87070132  0.73746898  0.74200945    -0.26900
C1994       C  0.84324825  0.73003690  0.76117859    -0.15000
C1995       C  0.81028618  0.71479281  0.74920130     0.35600
C1996       C  0.80508265  0.70890433  0.71838204    -0.26400
C1997       C  0.83199042  0.71777992  0.69894031    -0.15600
C1998       C  0.86567505  0.73135518  0.71130647     0.36700
N1999       N  0.89500928  0.73940773  0.69292584    -0.89900
H2000       H  0.89621798  0.74877520  0.75081906     0.17800
H2001       H  0.77931202  0.69813063  0.70956639     0.17800
N2002       N  0.78084880  0.70644457  0.76736111    -0.88900
H2003       H  0.91822312  0.72573915  0.70071646     0.35200
H2004       H  0.90101063  0.76496474  0.69541207     0.40300
H2005       H  0.77263653  0.72813784  0.77815400     0.39900
H2006       H  0.79018606  0.68864296  0.78331882     0.34800
C2007       C  0.86469153  0.75254970  0.96048771    -0.26900
C2008       C  0.82922125  0.76280949  0.94972715    -0.15000
C2009       C  0.80213802  0.76722703  0.97022265     0.35600
C2010       C  0.81019316  0.75875858  0.00037941    -0.26400
C2011       C  0.84739585  0.73308275  0.50908871    -0.15600
C2012       C  0.87291804  0.72533817  0.48799167     0.36700
N2013       N  0.90718216  0.70900773  0.49607263    -0.89900
H2014       H  0.88643311  0.75025194  0.94538117     0.17800
H2015       H  0.79401494  0.75454424  0.51521134     0.17800
N2016       N  0.76615111  0.77893767  0.96051138    -0.88900
H2017       H  0.90203613  0.68479480  0.50375756     0.35200
H2018       H  0.92128670  0.72272089  0.51312531     0.40300
H2019       H  0.76097803  0.80072682  0.97247552     0.39900
H2020       H  0.74717903  0.76070599  0.96606972     0.34800
C2021       C  0.78110205  0.93951823  0.90133092    -0.26900
C2022       C  0.76096676  0.95504259  0.87733913    -0.15000
C2023       C  0.76751748  0.94581601  0.84774510     0.35600
C2024       C  0.79182784  0.91921959  0.84285342    -0.26400
C2025       C  0.80865877  0.90099319  0.86697336    -0.15600
C2026       C  0.80466976  0.91245786  0.89636995     0.36700
N2027       N  0.82330844  0.89559051  0.92132511    -0.89900
H2028       H  0.77687307  0.94704299  0.92405640     0.17800
H2029       H  0.79477084  0.91066047  0.82021193     0.17800
N2030       N  0.74873091  0.96292113  0.82279836    -0.88900
H2031       H  0.83965396  0.91320443  0.93330860     0.35200
H2032       H  0.80360419  0.88682976  0.93526800     0.40300
H2033       H  0.72087303  0.95690436  0.82266988     0.39900
H2034       H  0.75771414  0.95408829  0.80262205     0.34800
C2035       C  0.71283785  0.68613017  0.83439951    -0.26900
C2036       C  0.72294361  0.70693190  0.85870838    -0.15000
C2037       C  0.70701965  0.70147512  0.88616935     0.35600
C2038       C  0.68392018  0.67370674  0.88954591    -0.26400
C2039       C  0.67717951  0.65050980  0.86620609    -0.15600
C2040       C  0.68998749  0.65816789  0.83783779     0.36700
N2041       N  0.68149869  0.63649204  0.81282048    -0.89900
H2042       H  0.72438999  0.69044178  0.81310273     0.17800
H2043       H  0.67455010  0.66839259  0.91148166     0.17800
N2044       N  0.71586844  0.72247724  0.91156728    -0.88900
H2045       H  0.70616616  0.62765502  0.80530536     0.35200
H2046       H  0.66830653  0.65079367  0.79563470     0.40300
H2047       H  0.70880339  0.74718147  0.90566884     0.39900
H2048       H  0.74421419  0.72144700  0.91673993     0.34800
loop_ 
_geom_bond_atom_site_label_1 
_geom_bond_atom_site_label_2 
_geom_bond_distance 
_geom_bond_site_symmetry_2 
_ccdc_geom_bond_type 
Fe1          O17   2.103       .  S
Fe1           O7   2.016       .  S
Fe1          O14   2.025       .  S
Fe1           O6   2.090       .  S
Fe1          O12   1.931       .  S
Fe2           O5   2.114       .  S
Fe2           O9   2.059       .  S
Fe2          O13   2.093       .  S
Fe2          O18   2.017       .  S
Fe2          O12   1.938       .  S
Fe3          O21   2.037       .  S
Fe3           O8   2.134       .  S
Fe3          O15   2.112       .  S
Fe3           O4   2.065       .  S
Fe3          O12   1.926       .  S
O4           C11   1.266       .  A
O5           C19   1.276       .  A
O6           C11   1.271       .  A
O7           C10   1.268       .  A
O8           C20   1.287       .  A
O9           C22   1.270       .  A
C10          O15   1.283       .  A
C10         C472   1.480       .  S
C11         C500   1.479       .  S
O13          C16   1.276       .  A
O14          C16   1.263       .  A
C16         C458   1.466       .  S
O17          C22   1.277       .  A
O18          C20   1.263       .  A
C19          O21   1.260       .  A
C19         C489   1.484       .  S
C20         C444   1.479       .  S
C22         C430   1.495       .  S
Fe23         O39   2.038       .  S
Fe23         O29   2.099       .  S
Fe23         O36   2.119       .  S
Fe23         O28   2.032       .  S
Fe23         O34   1.929       .  S
Fe24         O27   2.009       .  S
Fe24         O31   2.100       .  S
Fe24         O35   2.051       .  S
Fe24         O40   2.123       .  S
Fe24         O34   1.939       .  S
Fe25         O43   2.136       .  S
Fe25         O30   2.031       .  S
Fe25         O37   2.053       .  S
Fe25         O26   2.108       .  S
Fe25         O34   1.930       .  S
O26          C33   1.282       .  A
O27          C41   1.260       .  A
O28          C33   1.270       .  A
O29          C32   1.275       .  A
O30          C42   1.258       .  A
O31          C44   1.276       .  A
C32          O37   1.265       .  A
C32        C1412   1.476       .  S
C33         C402   1.485       .  S
O35          C38   1.270       .  A
O36          C38   1.281       .  A
C38         C363   1.499       .  S
O39          C44   1.265       .  A
O40          C42   1.277       .  A
C41          O43   1.287       .  A
C41         C447   1.480       .  S
C42         C377   1.493       .  S
C44         C419   1.478       .  S
Fe45         O61   2.099   1_565  S
Fe45         O51   2.016       .  S
Fe45       O1082   2.030       .  S
Fe45       O1074   2.088       .  S
Fe45         O56   1.933   1_565  S
Fe46         O49   2.116       .  S
Fe46         O53   2.057       .  S
Fe46         O57   2.100       .  S
Fe46         O62   2.017       .  S
Fe46         O56   1.936       .  S
Fe47         O65   2.030       .  S
Fe47         O52   2.128       .  S
Fe47         O59   2.116       .  S
Fe47       O1072   2.060       .  S
Fe47         O56   1.927       .  S
O48       Fe1071   2.063       .  S
O48          C55   1.264       .  A
O49          C63   1.277       .  A
O50       Fe1069   2.090       .  S
O50          C55   1.270       .  A
O51          C54   1.270   1_565  A
O52          C64   1.286       .  A
O53          C66   1.268       .  A
C54          O59   1.285       .  A
C54         C416   1.486       .  S
C55         C486   1.478       .  S
O57          C60   1.278   1_545  A
O58       Fe1069   2.036       .  S
O58        C1084   1.268       .  A
C60        O1082   1.267       .  A
C60        C1429   1.465       .  S
O61          C66   1.275       .  A
O62          C64   1.264       .  A
C63          O65   1.259       .  A
C63         C503   1.490       .  S
C64         C346   1.482       .  S
C66         C332   1.497       .  S
Fe67         O83   2.022       .  S
Fe67         O73   2.092       .  S
Fe67         O80   2.108       .  S
Fe67         O72   2.010       .  S
Fe67         O78   1.936       .  S
Fe68         O71   2.011       .  S
Fe68         O75   2.101       .  S
Fe68         O79   2.057       .  S
Fe68         O84   2.119       .  S
Fe68         O78   1.937       .  S
Fe69         O87   2.136       .  S
Fe69         O74   2.032       .  S
Fe69         O81   2.059       .  S
Fe69         O70   2.114       .  S
Fe69         O78   1.927       .  S
O70          C77   1.286       .  A
O71          C85   1.263       .  A
O72          C77   1.266       .  A
O73          C76   1.271       .  A
O74          C86   1.259       .  A
O75          C88   1.278       .  A
C76          O81   1.264       .  A
C76         C374   1.478       .  S
C77         C461   1.478       .  S
O79          C82   1.270       .  A
O80          C82   1.276       .  A
C82         C318   1.499       .  S
O83          C88   1.265       .  A
O84          C86   1.277       .  A
C85          O87   1.287       .  A
C85         C349   1.482       .  S
C86         C391   1.496       .  S
C88         C475   1.473       .  S
Fe89        O105   2.107       .  S
Fe89         O95   2.010       .  S
Fe89        O102   2.021       .  S
Fe89         O94   2.095       .  S
Fe89        O100   1.934       .  S
Fe90         O93   2.120       .  S
Fe90         O97   2.056       .  S
Fe90        O101   2.092       .  S
Fe90        O106   2.015       .  S
Fe90        O100   1.937       .  S
Fe91        O109   2.029       .  S
Fe91         O96   2.131       .  S
Fe91        O103   2.109       .  S
Fe91         O92   2.050       .  S
Fe91        O100   1.923       .  S
O92          C99   1.263       .  A
O93         C107   1.276       .  A
O94          C99   1.272       .  A
O95          C98   1.267       .  A
O96         C108   1.287       .  A
O97         C110   1.270       .  A
C98         O103   1.283       .  A
C98         C279   1.477       .  S
C99         C304   1.476       .  S
O101        C104   1.277       .  A
O102        C104   1.264       .  A
C104        C262   1.478       .  S
O105        C110   1.278       .  A
O106        C108   1.263       .  A
C107        O109   1.259       .  A
C107        C290   1.497       .  S
C108        C251   1.482       .  S
C110        C433   1.496       .  S
Fe111       O127   2.028       .  S
Fe111       O117   2.091       .  S
Fe111       O124   2.104       .  S
Fe111       O116   2.012       .  S
Fe111       O122   1.940       .  S
Fe112       O115   2.022       .  S
Fe112       O119   2.091       .  S
Fe112       O123   2.064       .  S
Fe112       O128   2.110       .  S
Fe112       O122   1.940       .  S
Fe113       O131   2.133       .  S
Fe113       O118   2.026       .  S
Fe113       O125   2.057       .  S
Fe113       O114   2.112       .  S
Fe113       O122   1.929       .  S
O114        C121   1.286       .  A
O115        C129   1.265       .  A
O116        C121   1.269       .  A
O117        C120   1.269       .  A
O118        C130   1.258       .  A
O119        C132   1.276       .  A
C120        O125   1.262       .  A
C120       C1233   1.480       .  S
C121        C220   1.464       .  S
O123        C126   1.270       .  A
O124        C126   1.276       .  A
C126        C360   1.499       .  S
O127        C132   1.267       .  A
O128        C130   1.275       .  A
C129        O131   1.287       .  A
C129        C248   1.487       .  S
C130        C192   1.491       .  S
C132        C234   1.479       .  S
Fe133       O149   2.018       .  S
Fe133       O139   2.089       .  S
Fe133       O146   2.111       .  S
Fe133       O138   2.011       .  S
Fe133       O144   1.934       .  S
Fe134       O137   2.015       .  S
Fe134       O141   2.095       .  S
Fe134       O145   2.055       .  S
Fe134       O150   2.121       .  S
Fe134       O144   1.938       .  S
Fe135       O153   2.142       .  S
Fe135       O140   2.033       .  S
Fe135       O147   2.055       .  S
Fe135       O136   2.119       .  S
Fe135       O144   1.927       .  S
O136        C143   1.285       .  A
O137        C151   1.263       .  A
O138        C143   1.268       .  A
O139        C142   1.271       .  A
O140        C152   1.259       .  A
O141        C154   1.277       .  A
C142        O147   1.264       .  A
C142        C195   1.476       .  S
C143        C265   1.475       .  S
O145        C148   1.270       .  A
O146        C148   1.278       .  A
C148        C321   1.500       .  S
O149        C154   1.262       .  A
O150        C152   1.277       .  A
C151        O153   1.289       .  A
C151        C181   1.487       .  S
C152        C206   1.492       .  S
C154        C276   1.462       .  S
Fe155       O171   2.105       .  S
Fe155       O161   2.022       .  S
Fe155      O1192   2.033       .  S
Fe155      O1184   2.095       .  S
Fe155       O166   1.927   1_565  S
Fe156       O159   2.125       .  S
Fe156       O163   2.056       .  S
Fe156       O167   2.097       .  S
Fe156       O172   2.013       .  S
Fe156       O166   1.935       .  S
Fe157       O175   2.026       .  S
Fe157       O162   2.149       .  S
Fe157       O169   2.114       .  S
Fe157      O1182   2.053   1_545  S
Fe157       O166   1.921       .  S
O158      Fe1181   2.055       .  S
O158        C165   1.265       .  A
O159        C173   1.277       .  A
O160      Fe1179   2.093       .  S
O160        C165   1.273       .  A
O161        C164   1.269       .  A
O162        C174   1.290       .  A
O163        C176   1.271       .  A
C164        O169   1.284   1_565  A
C164        C237   1.486       .  S
C165        C293   1.478       .  S
O167        C170   1.279   1_545  A
O168      Fe1179   2.025       .  S
O168       C1194   1.264       .  A
C170       O1192   1.265       .  A
C170       C1247   1.480       .  S
O171        C176   1.276   1_565  A
O172        C174   1.263       .  A
C173        O175   1.256       .  A
C173        C307   1.496       .  S
C174        C178   1.490       .  S
C176        C335   1.500       .  S
C177        C178   1.415       .  A
C177        C182   1.405       .  A
C177        H184   1.084       .  S
C178        C179   1.410       .  A
C179        C180   1.410       .  A
C179        N186   1.438       .  S
C180        C181   1.413       .  A
C180        H185   1.084       .  S
C181        C182   1.402       .  A
C182        N183   1.431       .  S
N183        H187   1.046       .  S
N183        H188   1.043       .  S
N186        H189   1.046       .  S
N186        H190   1.045       .  S
C191        C192   1.405       .  A
C191        C196   1.411       .  A
C191        H198   1.083       .  S
C192        C193   1.421       .  A
C193        C194   1.406       .  A
C193        N200   1.439       .  S
C194        C195   1.397       .  A
C194        H199   1.084       .  S
C195        C196   1.412       .  A
C196        N197   1.438       .  S
N197        H201   1.046       .  S
N197        H202   1.045       .  S
N200        H203   1.045       .  S
N200        H204   1.046       .  S
C205        C206   1.405       .  A
C205        C210   1.408       .  A
C205        H212   1.084       .  S
C206        C207   1.421       .  A
C207        C208   1.409       .  A
C207        N214   1.436       .  S
C208        C209   1.397       .  A
C208        H213   1.084       .  S
C209       C1144   1.478   1_545  S
C209        C210   1.409       .  A
C210       N1235   1.432   1_545  S
N211       C1234   1.438       .  S
N211        H215   1.046       .  S
N211        H216   1.045       .  S
N214        H217   1.045       .  S
N214        H218   1.046       .  S
C219        C220   1.398       .  A
C219        C224   1.402       .  A
C219        H226   1.084       .  S
C220        C221   1.409       .  A
C221       C1246   1.393       .  A
C221       N1252   1.434       .  S
C222       C1245   1.394   1_545  A
C222       C1247   1.401   1_545  A
C222        H227   1.084       .  S
C223       C1194   1.475       .  S
C223        C224   1.417       .  A
C223       C1246   1.401       .  A
C224        N225   1.432       .  S
N225        H229   1.046       .  S
N225        H230   1.045       .  S
N228       C1245   1.433   1_545  S
N228        H231   1.046       .  S
N228        H232   1.043       .  S
C233        C234   1.410   1_556  A
C233       C1774   1.399       .  A
C233        H240   1.084   1_556  S
C234        C747   1.415   1_554  A
C235        C236   1.393       .  A
C235        C746   1.410       .  A
C235        N754   1.433       .  S
C236       C1261   1.405       .  A
C236        H241   1.084       .  S
C237        C238   1.409   1_565  A
C237       C1260   1.411       .  A
C238       C1769   1.401   1_545  A
C238        N239   1.432       .  S
N239        H243   1.046       .  S
N239        H244   1.046       .  S
N242        C747   1.438       .  S
N242        H245   1.045   1_556  S
N242        H758   1.046       .  S
H246        N754   1.046       .  S
C247        C252   1.405       .  A
C247        C760   1.412       .  A
C247        H766   1.084       .  S
C248        C249   1.407       .  A
C248        C759   1.412   1_554  A
C249        C762   1.408       .  A
C249        N256   1.438       .  S
C250        C251   1.413       .  A
C250        C761   1.405       .  A
C250        H255   1.085       .  S
C251        C252   1.408       .  A
C252        N253   1.438       .  S
N253        H257   1.046       .  S
N253        H258   1.046       .  S
H254        C759   1.083       .  S
N256        H259   1.046       .  S
N256        H260   1.046       .  S
C261        C262   1.411       .  A
C261        C778   1.404       .  A
C261        H268   1.083       .  S
C262        C775   1.406       .  A
C263        C264   1.395       .  A
C263        C774   1.409   1_554  A
C263        N782   1.433       .  S
C264        C265   1.406       .  A
C264        H269   1.084       .  S
C265        C266   1.407       .  A
C266        C773   1.404   1_554  A
C266        N267   1.436       .  S
N267        H271   1.046       .  S
N267        H272   1.045       .  S
N270        C775   1.433       .  S
N270        H273   1.046       .  S
N270        H786   1.046       .  S
H274        N782   1.046       .  S
C275        C276   1.405       .  A
C275        C280   1.399       .  A
C275        H282   1.084       .  S
C276        C277   1.401       .  A
C277        C278   1.397       .  A
C277        N284   1.438       .  S
C278        C279   1.412       .  A
C278        H283   1.083       .  S
C279        C280   1.408       .  A
C280        N281   1.433       .  S
N281        H285   1.046       .  S
N281        H286   1.046       .  S
N284        H287   1.045       .  S
N284        H288   1.046       .  S
C289        C290   1.413       .  A
C289        C294   1.401       .  A
C289        H296   1.084       .  S
C290        C291   1.416       .  A
C291        C292   1.414       .  A
C291        N298   1.437       .  S
C292        C293   1.406       .  A
C292        H297   1.084       .  S
C293        C294   1.400       .  A
C294        N295   1.432       .  S
N295        H299   1.046       .  S
N295        H300   1.046       .  S
N298        H301   1.045       .  S
N298        H302   1.046       .  S
C303        C304   1.405       .  A
C303        C308   1.411       .  A
C303        H310   1.084       .  S
C304        C305   1.402       .  A
C305        C306   1.406       .  A
C305        N312   1.438       .  S
C306        C307   1.415       .  A
C306        H311   1.083       .  S
C307        C308   1.414       .  A
C308        N309   1.437       .  S
N309        H313   1.045       .  S
N309        H314   1.046       .  S
N312        H315   1.046       .  S
N312        H316   1.046       .  S
C317        C318   1.406       .  A
C317        C322   1.405   1_655  A
C317        H324   1.083       .  S
C318        C319   1.416       .  A
C319        C320   1.410   1_655  A
C319        N326   1.432       .  S
C320        C321   1.409       .  A
C320        H325   1.083       .  S
C321        C322   1.415       .  A
C322        N323   1.432       .  S
N323        H327   1.046       .  S
N323        H328   1.046       .  S
N326        H329   1.046       .  S
N326        H330   1.046       .  S
C331        C332   1.406   1_565  A
C331        C336   1.402       .  A
C331        H338   1.084       .  S
C332        C333   1.414       .  A
C333        C334   1.406       .  A
C333        N340   1.432       .  S
C334        C335   1.409       .  A
C334        H339   1.083       .  S
C335        C336   1.423   1_545  A
C336        N337   1.432       .  S
N337        H341   1.046       .  S
N337        H342   1.044       .  S
N340        H343   1.046       .  S
N340        H344   1.045       .  S
C345        C346   1.412       .  A
C345        C862   1.408       .  A
C345        H352   1.084       .  S
C346        C347   1.407       .  A
C347        C348   1.405       .  A
C347        N354   1.438       .  S
C348        C861   1.413       .  A
C348        H353   1.084       .  S
C349        C350   1.407       .  A
C349        C860   1.412   1_554  A
C350        C857   1.407   1_554  A
C350        N351   1.438       .  S
N351        H355   1.046       .  S
N351        H356   1.045       .  S
N354        H357   1.045       .  S
N354        H358   1.046       .  S
C359        C360   1.409       .  A
C359        C364   1.412       .  A
C359        H366   1.083       .  S
C360        C361   1.412       .  A
C361        C362   1.406       .  A
C361        N368   1.432       .  S
C362        C363   1.409       .  A
C362        H367   1.084       .  S
C363        C364   1.416       .  A
C364        N365   1.438       .  S
N365        H369   1.046       .  S
N365        H370   1.046       .  S
N368        H371   1.046       .  S
N368        H372   1.046       .  S
C373        C374   1.404       .  A
C373        C378   1.408       .  A
C373        H380   1.084       .  S
C374        C375   1.407       .  A
C375        C376   1.402       .  A
C375        N382   1.433       .  S
C376        C377   1.414       .  A
C376        H381   1.084       .  S
C377        C378   1.412       .  A
C378        N379   1.432       .  S
N379        H383   1.045       .  S
N379        H384   1.045       .  S
N382        H385   1.045       .  S
N382        H386   1.046       .  S
C387        C388   1.405       .  A
C387        C392   1.411       .  A
C387       H1418   1.084       .  S
C388       C1056   1.477   1_545  S
C388        C389   1.401       .  A
C389        C390   1.404       .  A
C389        N396   1.432       .  S
C390        C391   1.413       .  A
C390        H395   1.084       .  S
C391        C392   1.414       .  A
C392        N393   1.432       .  S
N393        H397   1.046       .  S
N393        H398   1.045       .  S
H394       C1411   1.084       .  S
N396        H399   1.045       .  S
N396        H400   1.046       .  S
C401        C402   1.410       .  A
C401        C918   1.402   1_554  A
C401        H408   1.084       .  S
C402        C403   1.413       .  A
C403        C916   1.406   1_554  A
C403        N410   1.438       .  S
C404        C405   1.403       .  A
C404        C915   1.403       .  A
C404        H409   1.084       .  S
C405       C1084   1.463       .  S
C405        C406   1.403       .  A
C406        C913   1.401       .  A
C406        N407   1.438       .  S
N407        H411   1.046       .  S
N407       H1436   1.046       .  S
N410        H413   1.046       .  S
N410        H414   1.046       .  S
H412       N1431   1.045       .  S
C415        C416   1.411   1_565  A
C415       C1444   1.391       .  A
C415        H422   1.084       .  S
C416       C1441   1.413       .  A
C417        C418   1.407       .  A
C417       C1440   1.413       .  A
C417        N424   1.437       .  S
C418        C419   1.408       .  A
C418        H423   1.084       .  S
C419        C420   1.408       .  A
C420       C1439   1.394       .  A
C420        N421   1.433       .  S
N421        H425   1.044       .  S
N421        H426   1.046       .  S
N424        H428   1.045       .  S
N424       H1451   1.046       .  S
H427       N1448   1.046       .  S
C429        C430   1.407       .  A
C429        C434   1.409   1_655  A
C429        H436   1.083       .  S
C430        C431   1.413       .  A
C431        C432   1.406   1_655  A
C431        N438   1.432       .  S
C432        C433   1.408       .  A
C432        H437   1.084       .  S
C433        C434   1.417       .  A
C434        N435   1.438       .  S
N435        H439   1.046       .  S
N435        H440   1.046       .  S
N438        H441   1.046       .  S
N438        H442   1.046       .  S
C443        C444   1.399       .  A
C443        C448   1.399       .  A
C443        H450   1.084       .  S
C444        C445   1.416       .  A
C445        C446   1.403       .  A
C445        N452   1.432       .  S
C446        C447   1.399       .  A
C446        H451   1.084       .  S
C447        C448   1.424       .  A
C448        N449   1.434       .  S
N449        H453   1.044       .  S
N449        H454   1.045       .  S
N452        H455   1.046       .  S
N452        H456   1.046       .  S
C457        C458   1.395       .  A
C457        C462   1.396       .  A
C457        H464   1.084       .  S
C458        C459   1.418       .  A
C459        C460   1.396       .  A
C459        N466   1.433       .  S
C460        C461   1.401       .  A
C460        H465   1.084       .  S
C461        C462   1.419       .  A
C462        N463   1.434       .  S
N463        H467   1.046       .  S
N463        H468   1.046       .  S
N466        H469   1.045       .  S
N466        H470   1.044       .  S
C471        C472   1.411       .  A
C471        C988   1.392       .  A
C471        H478   1.084       .  S
C472        C473   1.412       .  A
C473        C474   1.404       .  A
C473        N480   1.437       .  S
C474        C987   1.406       .  A
C474        H991   1.084       .  S
C475        C476   1.407   1_554  A
C475        C986   1.408   1_554  A
C476        C983   1.393       .  A
C476        N477   1.433       .  S
N477        H481   1.045   1_556  S
N477        H482   1.045   1_556  S
H479        C986   1.084   1_554  S
N480        H483   1.045       .  S
N480        H484   1.046       .  S
C485        C486   1.400       .  A
C485        C490   1.407       .  A
C485        H492   1.084       .  S
C486        C487   1.413       .  A
C487        C488   1.409       .  A
C487        N494   1.439       .  S
C488        C489   1.404       .  A
C488        H493   1.084       .  S
C489        C490   1.414       .  A
C490        N491   1.432       .  S
N491        H495   1.046       .  S
N491        H496   1.046       .  S
N494        H497   1.045       .  S
N494        H498   1.046       .  S
C499        C500   1.399       .  A
C499        C504   1.406       .  A
C499        H506   1.083       .  S
C500        C501   1.414       .  A
C501        C502   1.404       .  A
C501        N508   1.431       .  S
C502        C503   1.404       .  A
C502        H507   1.084       .  S
C503        C504   1.418       .  A
C504        N505   1.433       .  S
N505        H509   1.046       .  S
N505        H510   1.046       .  S
N508        H511   1.045       .  S
N508        H512   1.045       .  S
Fe513       O529   2.111       .  S
Fe513       O519   2.018       .  S
Fe513       O526   2.033       .  S
Fe513       O518   2.095       .  S
Fe513       O524   1.927       .  S
Fe514       O517   2.116       .  S
Fe514       O521   2.054       .  S
Fe514       O525   2.093       .  S
Fe514       O530   2.011       .  S
Fe514       O524   1.936       .  S
Fe515       O533   2.039       .  S
Fe515       O520   2.138       .  S
Fe515       O527   2.110       .  S
Fe515       O516   2.062       .  S
Fe515       O524   1.927       .  S
O516        C523   1.266       .  A
O517        C531   1.275       .  A
O518        C523   1.273       .  A
O519        C522   1.268       .  A
O520        C532   1.288       .  A
O521        C534   1.270       .  A
C522        O527   1.283       .  A
C522        C984   1.485       .  S
C523       C1012   1.480       .  S
O525        C528   1.276       .  A
O526        C528   1.263       .  A
C528        C970   1.473       .  S
O529        C534   1.280       .  A
O530        C532   1.263       .  A
C531        O533   1.258       .  A
C531       C1001   1.488       .  S
C532        C956   1.475       .  S
C534        C942   1.500       .  S
Fe535       O551   2.030       .  S
Fe535       O541   2.086       .  S
Fe535       O548   2.104       .  S
Fe535       O540   2.025       .  S
Fe535       O546   1.928       .  S
Fe536       O539   2.005       .  S
Fe536       O543   2.105       .  S
Fe536       O547   2.045       .  S
Fe536       O552   2.121       .  S
Fe536       O546   1.936       .  S
Fe537       O555   2.136       .  S
Fe537       O542   2.032       .  S
Fe537       O549   2.049       .  S
Fe537       O538   2.108       .  S
Fe537       O546   1.927       .  S
O538        C545   1.282       .  A
O539        C553   1.259       .  A
O540        C545   1.268       .  A
O541        C544   1.273       .  A
O542        C554   1.259       .  A
O543        C556   1.278       .  A
C544        O549   1.264       .  A
C544       C1924   1.469       .  S
C545        C914   1.477       .  S
O547        C550   1.268       .  A
O548        C550   1.277       .  A
C550        C875   1.489       .  S
O551        C556   1.263       .  A
O552        C554   1.277       .  A
C553        O555   1.286       .  A
C553        C959   1.475       .  S
C554        C889   1.493       .  S
C556        C931   1.477       .  S
Fe557       O573   2.099   1_565  S
Fe557       O563   2.020   1_565  S
Fe557      O1594   2.039       .  S
Fe557      O1586   2.091       .  S
Fe557       O568   1.930   1_565  S
Fe558       O561   2.121       .  S
Fe558       O565   2.059       .  S
Fe558       O569   2.104       .  S
Fe558       O574   2.014       .  S
Fe558       O568   1.934       .  S
Fe559       O577   2.033       .  S
Fe559       O564   2.135       .  S
Fe559       O571   2.120       .  S
Fe559      O1584   2.064       .  S
Fe559       O568   1.926       .  S
O560      Fe1583   2.066       .  S
O560        C567   1.266       .  A
O561        C575   1.278       .  A
O562      Fe1581   2.086       .  S
O562        C567   1.269       .  A
O563        C566   1.270       .  A
O564        C576   1.287       .  A
O565        C578   1.269       .  A
C566        O571   1.286       .  A
C566        C928   1.487       .  S
C567        C998   1.478       .  S
O569        C572   1.280   1_545  A
O570      Fe1581   2.041       .  S
O570       C1596   1.268       .  A
C572       O1594   1.268       .  A
C572       C1941   1.473       .  S
O573        C578   1.275       .  A
O574        C576   1.263       .  A
C575        O577   1.260       .  A
C575       C1015   1.492       .  S
C576        C858   1.484       .  S
C578        C844   1.495       .  S
Fe579       O595   2.029       .  S
Fe579       O585   2.096       .  S
Fe579       O592   2.114       .  S
Fe579       O584   2.019       .  S
Fe579       O590   1.926       .  S
Fe580       O583   2.009       .  S
Fe580       O587   2.096       .  S
Fe580       O591   2.049       .  S
Fe580       O596   2.122       .  S
Fe580       O590   1.939       .  S
Fe581       O599   2.143       .  S
Fe581       O586   2.029       .  S
Fe581       O593   2.057       .  S
Fe581       O582   2.106       .  S
Fe581       O590   1.922       .  S
O582        C589   1.282       .  A
O583        C597   1.263       .  A
O584        C589   1.266       .  A
O585        C588   1.275       .  A
O586        C598   1.256       .  A
O587        C600   1.275       .  A
C588        O593   1.266       .  A
C588        C886   1.477       .  S
C589        C973   1.482       .  S
O591        C594   1.271       .  A
O592        C594   1.280       .  A
C594        C830   1.497       .  S
O595        C600   1.263       .  A
O596        C598   1.275       .  A
C597        O599   1.288       .  A
C597        C861   1.487       .  S
C598        C903   1.493       .  S
C600        C987   1.467       .  S
Fe601       O617   2.108       .  S
Fe601       O607   2.017       .  S
Fe601       O614   2.026       .  S
Fe601       O606   2.090       .  S
Fe601       O612   1.937       .  S
Fe602       O605   2.110       .  S
Fe602       O609   2.053       .  S
Fe602       O613   2.093       .  S
Fe602       O618   2.016       .  S
Fe602       O612   1.938       .  S
Fe603       O621   2.029       .  S
Fe603       O608   2.138       .  S
Fe603       O615   2.116       .  S
Fe603       O604   2.055       .  S
Fe603       O612   1.926       .  S
O604        C611   1.263       .  A
O605        C619   1.275       .  A
O606        C611   1.271       .  A
O607        C610   1.270       .  A
O608        C620   1.288       .  A
O609        C622   1.269       .  A
C610        O615   1.285       .  A
C610        C791   1.487       .  S
C611        C816   1.476       .  S
O613        C616   1.277       .  A
O614        C616   1.266       .  A
C616        C774   1.481       .  S
O617        C622   1.276       .  A
O618        C620   1.263       .  A
C619        O621   1.260       .  A
C619        C802   1.492       .  S
C620        C763   1.488       .  S
C622        C945   1.499       .  S
Fe623       O639   2.032       .  S
Fe623       O629   2.089       .  S
Fe623       O636   2.099       .  S
Fe623       O628   2.015       .  S
Fe623       O634   1.933       .  S
Fe624       O627   2.011       .  S
Fe624       O631   2.089       .  S
Fe624       O635   2.050       .  S
Fe624       O640   2.104       .  S
Fe624       O634   1.938       .  S
Fe625       O643   2.139       .  S
Fe625       O630   2.037       .  S
Fe625       O637   2.065       .  S
Fe625       O626   2.111       .  S
Fe625       O634   1.928       .  S
O626        C633   1.284       .  A
O627        C641   1.264       .  A
O628        C633   1.268       .  A
O629        C632   1.271       .  A
O630        C642   1.259       .  A
O631        C644   1.275       .  A
C632        O637   1.266       .  A
C632       C1745   1.480       .  S
C633        C732   1.465       .  S
O635        C638   1.269       .  A
O636        C638   1.276       .  A
C638        C872   1.488       .  S
O639        C644   1.266       .  A
O640        C642   1.273       .  A
C641        O643   1.289       .  A
C641        C760   1.484       .  S
C642        C704   1.487       .  S
C644        C746   1.479       .  S
Fe645       O661   2.032       .  S
Fe645       O651   2.087       .  S
Fe645       O658   2.109       .  S
Fe645       O650   2.013       .  S
Fe645       O656   1.928       .  S
Fe646       O649   2.006       .  S
Fe646       O653   2.092       .  S
Fe646       O657   2.056       .  S
Fe646       O662   2.119       .  S
Fe646       O656   1.936       .  S
Fe647       O665   2.134       .  S
Fe647       O652   2.039       .  S
Fe647       O659   2.056       .  S
Fe647       O648   2.108       .  S
Fe647       O656   1.927       .  S
O648        C655   1.283       .  A
O649        C663   1.263       .  A
O650        C655   1.268       .  A
O651        C654   1.271       .  A
O652        C664   1.258       .  A
O653        C666   1.275       .  A
C654        O659   1.264       .  A
C654        C707   1.474       .  S
C655        C777   1.478       .  S
O657        C660   1.272       .  A
O658        C660   1.279       .  A
C660        C833   1.498       .  S
O661        C666   1.264       .  A
O662        C664   1.275       .  A
C663        O665   1.288       .  A
C663        C693   1.483       .  S
C664        C718   1.492       .  S
C666        C788   1.473       .  S
Fe667       O683   2.104       .  S
Fe667       O673   2.013       .  S
Fe667      O1704   2.021       .  S
Fe667      O1696   2.093       .  S
Fe667       O678   1.932   1_565  S
Fe668       O671   2.119       .  S
Fe668       O675   2.054       .  S
Fe668       O679   2.098       .  S
Fe668       O684   2.011       .  S
Fe668       O678   1.937       .  S
Fe669       O687   2.029       .  S
Fe669       O674   2.129       .  S
Fe669       O681   2.106       .  S
Fe669      O1694   2.053   1_545  S
Fe669       O678   1.927       .  S
O670      Fe1693   2.051       .  S
O670        C677   1.265       .  A
O671        C685   1.277       .  A
O672      Fe1691   2.093       .  S
O672        C677   1.274       .  A
O673        C676   1.268       .  A
O674        C686   1.286       .  A
O675        C688   1.270       .  A
C676        O681   1.282   1_565  A
C676        C749   1.466       .  S
C677        C805   1.474       .  S
O679        C682   1.279   1_545  A
O680      Fe1691   2.028       .  S
O680       C1706   1.262       .  A
C682       O1704   1.263       .  A
C682       C1759   1.475       .  S
O683        C688   1.276   1_565  A
O684        C686   1.263       .  A
C685        O687   1.259       .  A
C685        C819   1.494       .  S
C686        C690   1.482       .  S
C688        C847   1.498       .  S
C689        C690   1.413       .  A
C689        C694   1.402       .  A
C689        H696   1.084       .  S
C690        C691   1.408       .  A
C691        C692   1.405       .  A
C691        N698   1.438       .  S
C692        C693   1.413       .  A
C692        H697   1.084       .  S
C693        C694   1.403       .  A
C694        N695   1.432       .  S
N695        H699   1.045       .  S
N695        H700   1.045       .  S
N698        H701   1.045       .  S
N698        H702   1.046       .  S
C703        C704   1.405       .  A
C703        C708   1.408       .  A
C703        H710   1.084       .  S
C704        C705   1.418       .  A
C705        C706   1.407       .  A
C705        N712   1.438       .  S
C706        C707   1.398       .  A
C706        H711   1.084       .  S
C707        C708   1.411       .  A
C708        N709   1.438       .  S
N709        H713   1.046       .  S
N709        H714   1.045       .  S
N712        H715   1.046       .  S
N712        H716   1.046       .  S
C717        C718   1.405       .  A
C717        C722   1.411       .  A
C717        H724   1.084       .  S
C718        C719   1.418       .  A
C719        C720   1.411       .  A
C719        N726   1.437       .  S
C720        C721   1.399       .  A
C720        H725   1.084       .  S
C721       C1656   1.482   1_545  S
C721        C722   1.413       .  A
C722       N1747   1.438   1_545  S
N723       C1746   1.433       .  S
N723        H727   1.045       .  S
N723        H728   1.045       .  S
N726        H729   1.046       .  S
N726        H730   1.046       .  S
C731        C732   1.398       .  A
C731        C736   1.402       .  A
C731        H738   1.084       .  S
C732        C733   1.412       .  A
C733       C1758   1.398       .  A
C733       N1764   1.439       .  S
C734       C1757   1.398       .  A
C734       C1759   1.402   1_545  A
C734        H739   1.084       .  S
C735       C1706   1.476       .  S
C735       C1758   1.401       .  A
C735        C736   1.415       .  A
C736        N737   1.433       .  S
N737        H741   1.046       .  S
N737        H742   1.045       .  S
N740       C1757   1.439       .  S
N740        H743   1.046       .  S
N740        H744   1.044       .  S
C745        C746   1.409       .  A
C745       C1262   1.404       .  A
C745        H752   1.083       .  S
C747        C748   1.399       .  A
C748       C1773   1.402       .  A
C748        H753   1.084       .  S
C749       C1772   1.402       .  A
C749        C750   1.406   1_565  A
C750       C1257   1.404   1_556  A
C750        N751   1.438       .  S
N751        H755   1.046       .  S
N751        H756   1.045       .  S
N754        H757   1.046       .  S
C759        C764   1.408       .  A
C760        C761   1.405       .  A
C761        N768   1.432       .  S
C762        C763   1.413   1_554  A
C762        H767   1.084       .  S
C763        C764   1.408       .  A
C764        N765   1.438       .  S
N765        H769   1.046       .  S
N765        H770   1.046       .  S
N768        H771   1.046       .  S
N768        H772   1.046       .  S
C773        C774   1.411       .  A
C773        H780   1.083       .  S
C775        C776   1.393       .  A
C776        C777   1.408       .  A
C776        H781   1.084       .  S
C777        C778   1.409       .  A
C778        N779   1.438       .  S
N779        H783   1.046       .  S
N779        H784   1.045       .  S
N782        H785   1.046       .  S
C787        C788   1.407       .  A
C787        C792   1.406       .  A
C787        H794   1.084       .  S
C788        C789   1.404       .  A
C789        C790   1.398       .  A
C789        N796   1.439       .  S
C790        C791   1.412       .  A
C790        H795   1.083       .  S
C791        C792   1.413       .  A
C792        N793   1.438       .  S
N793        H797   1.046       .  S
N793        H798   1.046       .  S
N796        H799   1.045       .  S
N796        H800   1.046       .  S
C801        C802   1.413       .  A
C801        C806   1.401       .  A
C801        H808   1.084       .  S
C802        C803   1.415       .  A
C803        C804   1.411       .  A
C803        N810   1.437       .  S
C804        C805   1.405       .  A
C804        H809   1.084       .  S
C805        C806   1.400       .  A
C806        N807   1.432       .  S
N807        H811   1.045       .  S
N807        H812   1.046       .  S
N810        H813   1.046       .  S
N810        H814   1.046       .  S
C815        C816   1.404       .  A
C815        C820   1.408       .  A
C815        H822   1.084       .  S
C816        C817   1.404       .  A
C817        C818   1.408       .  A
C817        N824   1.438       .  S
C818        C819   1.414       .  A
C818        H823   1.084       .  S
C819        C820   1.412       .  A
C820        N821   1.432       .  S
N821        H825   1.045       .  S
N821        H826   1.046       .  S
N824        H827   1.046       .  S
N824        H828   1.046       .  S
C829        C830   1.407       .  A
C829        C834   1.405   1_655  A
C829        H836   1.083       .  S
C830        C831   1.414       .  A
C831        C832   1.408   1_655  A
C831        N838   1.432       .  S
C832        C833   1.409       .  A
C832        H837   1.083       .  S
C833        C834   1.414       .  A
C834        N835   1.432       .  S
N835        H839   1.046       .  S
N835        H840   1.046       .  S
N838        H841   1.046       .  S
N838        H842   1.046       .  S
C843        C844   1.407   1_565  A
C843        C848   1.402       .  A
C843        H850   1.084       .  S
C844        C845   1.412       .  A
C845        C846   1.405       .  A
C845        N852   1.432       .  S
C846        C847   1.409       .  A
C846        H851   1.083       .  S
C847        C848   1.421   1_545  A
C848        N849   1.433       .  S
N849        H853   1.046       .  S
N849        H854   1.045       .  S
N852        H855   1.046       .  S
N852        H856   1.046       .  S
C857        C858   1.412       .  A
C857        H864   1.084   1_556  S
C858        C859   1.408       .  A
C859        C860   1.406       .  A
C859        N866   1.438       .  S
C860        H865   1.084       .  S
C861        C862   1.409       .  A
C862        N863   1.438       .  S
N863        H867   1.046       .  S
N863        H868   1.045       .  S
N866        H869   1.044       .  S
N866        H870   1.046       .  S
C871        C872   1.407       .  A
C871        C876   1.407       .  A
C871        H878   1.083       .  S
C872        C873   1.411       .  A
C873        C874   1.403       .  A
C873        N880   1.433       .  S
C874        C875   1.407       .  A
C874        H879   1.084       .  S
C875        C876   1.414       .  A
C876        N877   1.438       .  S
N877        H881   1.046       .  S
N877        H882   1.046       .  S
N880        H883   1.046       .  S
N880        H884   1.046       .  S
C885        C886   1.405       .  A
C885        C890   1.409       .  A
C885        H892   1.084       .  S
C886        C887   1.407       .  A
C887        C888   1.401       .  A
C887        N894   1.433       .  S
C888        C889   1.413       .  A
C888        H893   1.084       .  S
C889        C890   1.412       .  A
C890        N891   1.432       .  S
N891        H895   1.046       .  S
N891        H896   1.044       .  S
N894        H897   1.046       .  S
N894        H898   1.045       .  S
C899        C900   1.405       .  A
C899        C904   1.410       .  A
C899       H1930   1.084       .  S
C900       C1568   1.475   1_545  S
C900        C901   1.400       .  A
C901        C902   1.402       .  A
C901        N908   1.432       .  S
C902        C903   1.413       .  A
C902        H907   1.084       .  S
C903        C904   1.413       .  A
C904        N905   1.432       .  S
N905        H909   1.046       .  S
N905        H910   1.045       .  S
H906       C1923   1.084       .  S
N908        H911   1.046       .  S
N908        H912   1.046       .  S
C913        C914   1.409       .  A
C913        H920   1.084       .  S
C914        C915   1.411       .  A
C915        N922   1.438       .  S
C916        C917   1.405       .  A
C916        H921   1.084       .  S
C917       C1596   1.472       .  S
C917        C918   1.404       .  A
C918        N919   1.438       .  S
N919        H923   1.046   1_556  S
N919       H1948   1.046       .  S
N922        H925   1.046       .  S
N922        H926   1.046       .  S
H924       N1943   1.045       .  S
C927        C928   1.410   1_565  A
C927       C1956   1.393       .  A
C927        H934   1.083       .  S
C928       C1953   1.409       .  A
C929       C1952   1.412       .  A
C929        C930   1.407       .  A
C929        N936   1.437       .  S
C930        C931   1.408       .  A
C930        H935   1.084       .  S
C931        C932   1.407       .  A
C932       C1951   1.395       .  A
C932        N933   1.433       .  S
N933        H937   1.044       .  S
N933        H938   1.045       .  S
N936       H1963   1.046       .  S
N936        H940   1.045       .  S
H939       N1960   1.046       .  S
C941        C942   1.408       .  A
C941        C946   1.406   1_655  A
C941        H948   1.083       .  S
C942        C943   1.419       .  A
C943        C944   1.409   1_655  A
C943        N950   1.438       .  S
C944        C945   1.407       .  A
C944        H949   1.083       .  S
C945        C946   1.414       .  A
C946        N947   1.432       .  S
N947        H951   1.046       .  S
N947        H952   1.046       .  S
N950        H953   1.046       .  S
N950        H954   1.046       .  S
C955        C956   1.398       .  A
C955        C960   1.399       .  A
C955        H962   1.084       .  S
C956        C957   1.415       .  A
C957        C958   1.403       .  A
C957        N964   1.433       .  S
C958        C959   1.399       .  A
C958        H963   1.084       .  S
C959        C960   1.422       .  A
C960        N961   1.434       .  S
N961        H965   1.044       .  S
N961        H966   1.045       .  S
N964        H967   1.046       .  S
N964        H968   1.046       .  S
C969        C970   1.398       .  A
C969        C974   1.397       .  A
C969        H976   1.084       .  S
C970        C971   1.418       .  A
C971        C972   1.397       .  A
C971        N978   1.433       .  S
C972        C973   1.402       .  A
C972        H977   1.084       .  S
C973        C974   1.419       .  A
C974        N975   1.434       .  S
N975        H979   1.046       .  S
N975        H980   1.046       .  S
N978        H981   1.046       .  S
N978        H982   1.045       .  S
C983        C984   1.412       .  A
C983        H990   1.084       .  S
C984        C985   1.412       .  A
C985        C986   1.404       .  A
C985        N992   1.438       .  S
C987        C988   1.405       .  A
C988        N989   1.433       .  S
N989        H993   1.044       .  S
N989        H994   1.046       .  S
N992        H995   1.046       .  S
N992        H996   1.046       .  S
C997        C998   1.399       .  A
C997       C1002   1.407       .  A
C997       H1004   1.084       .  S
C998        C999   1.413       .  A
C999       C1000   1.410       .  A
C999       N1006   1.438       .  S
C1000      C1001   1.405       .  A
C1000      H1005   1.084       .  S
C1001      C1002   1.415       .  A
C1002      N1003   1.432       .  S
N1003      H1007   1.046       .  S
N1003      H1008   1.046       .  S
N1006      H1009   1.045       .  S
N1006      H1010   1.046       .  S
C1011      C1012   1.398       .  A
C1011      C1016   1.406       .  A
C1011      H1018   1.084       .  S
C1012      C1013   1.415       .  A
C1013      C1014   1.406       .  A
C1013      N1020   1.433       .  S
C1014      C1015   1.406       .  A
C1014      H1019   1.084       .  S
C1015      C1016   1.418       .  A
C1016      N1017   1.433       .  S
N1017      H1021   1.046       .  S
N1017      H1022   1.046       .  S
N1020      H1023   1.046       .  S
N1020      H1024   1.045       .  S
Fe1025     O1041   2.108       .  S
Fe1025     O1031   2.009       .  S
Fe1025     O1038   2.020       .  S
Fe1025     O1030   2.095       .  S
Fe1025     O1036   1.928       .  S
Fe1026     O1029   2.115       .  S
Fe1026     O1033   2.054       .  S
Fe1026     O1037   2.095       .  S
Fe1026     O1042   2.017       .  S
Fe1026     O1036   1.937       .  S
Fe1027     O1045   2.035       .  S
Fe1027     O1032   2.145       .  S
Fe1027     O1039   2.118       .  S
Fe1027     O1028   2.056       .  S
Fe1027     O1036   1.924       .  S
O1028      C1035   1.265       .  A
O1029      C1043   1.276       .  A
O1030      C1035   1.274       .  A
O1031      C1034   1.266       .  A
O1032      C1044   1.289       .  A
O1033      C1046   1.270       .  A
C1034      O1039   1.284       .  A
C1034      C1496   1.484       .  S
C1035      C1524   1.476       .  S
O1037      C1040   1.276       .  A
O1038      C1040   1.261       .  A
C1040      C1482   1.464       .  S
O1041      C1046   1.279       .  A
O1042      C1044   1.263       .  A
C1043      O1045   1.259       .  A
C1043      C1513   1.487       .  S
C1044      C1468   1.484       .  S
C1046      C1454   1.496       .  S
Fe1047     O1063   2.035       .  S
Fe1047     O1053   2.096   1_565  S
Fe1047     O1060   2.109       .  S
Fe1047     O1052   2.030       .  S
Fe1047     O1058   1.928       .  S
Fe1048     O1051   2.017       .  S
Fe1048     O1055   2.092       .  S
Fe1048     O1059   2.054       .  S
Fe1048     O1064   2.121       .  S
Fe1048     O1058   1.940       .  S
Fe1049     O1067   2.139       .  S
Fe1049     O1054   2.029       .  S
Fe1049     O1061   2.056       .  S
Fe1049     O1050   2.107       .  S
Fe1049     O1058   1.925       .  S
O1050      C1057   1.281       .  A
O1051      C1065   1.261       .  A
O1052      C1057   1.269       .  A
O1053      C1056   1.274   1_545  A
O1054      C1066   1.258       .  A
O1055      C1068   1.275       .  A
C1056      O1061   1.266       .  A
C1057      C1426   1.487       .  S
O1059      C1062   1.271       .  A
O1060      C1062   1.279       .  A
C1062      C1387   1.495       .  S
O1063      C1068   1.265       .  A
O1064      C1066   1.276       .  A
C1065      O1067   1.288       .  A
C1065      C1471   1.484       .  S
C1066      C1401   1.490       .  S
C1068      C1443   1.474       .  S
Fe1069     O1085   2.098       .  S
Fe1069     O1075   2.023       .  S
Fe1069     O1080   1.928       .  S
Fe1070     O1073   2.117       .  S
Fe1070     O1077   2.057       .  S
Fe1070     O1081   2.099       .  S
Fe1070     O1086   2.017       .  S
Fe1070     O1080   1.935       .  S
Fe1071     O1089   2.027       .  S
Fe1071     O1076   2.137       .  S
Fe1071     O1083   2.121       .  S
Fe1071     O1080   1.922       .  S
O1072      C1079   1.263   1_545  A
O1073      C1087   1.277       .  A
O1074      C1079   1.269       .  A
O1075      C1078   1.270       .  A
O1076      C1088   1.287       .  A
O1077      C1090   1.269       .  A
C1078      O1083   1.286       .  A
C1078      C1440   1.489       .  S
C1079      C1510   1.476       .  S
O1081      C1084   1.277       .  A
O1085      C1090   1.276       .  A
O1086      C1088   1.263       .  A
C1087      O1089   1.259       .  A
C1087      C1527   1.487       .  S
C1088      C1370   1.485       .  S
C1090      C1356   1.495       .  S
Fe1091     O1107   2.025       .  S
Fe1091     O1097   2.094       .  S
Fe1091     O1104   2.110       .  S
Fe1091     O1096   2.008       .  S
Fe1091     O1102   1.933       .  S
Fe1092     O1095   2.017       .  S
Fe1092     O1099   2.101       .  S
Fe1092     O1103   2.056       .  S
Fe1092     O1108   2.122       .  S
Fe1092     O1102   1.932       .  S
Fe1093     O1111   2.146       .  S
Fe1093     O1098   2.030       .  S
Fe1093     O1105   2.056       .  S
Fe1093     O1094   2.116       .  S
Fe1093     O1102   1.926       .  S
O1094      C1101   1.285       .  A
O1095      C1109   1.264       .  A
O1096      C1101   1.265       .  A
O1097      C1100   1.272       .  A
O1098      C1110   1.259       .  A
O1099      C1112   1.278       .  A
C1100      O1105   1.265       .  A
C1100      C1398   1.475       .  S
C1101      C1485   1.476       .  S
O1103      C1106   1.270       .  A
O1104      C1106   1.277       .  A
C1106      C1342   1.499       .  S
O1107      C1112   1.264       .  A
O1108      C1110   1.277       .  A
C1109      O1111   1.289       .  A
C1109      C1373   1.492       .  S
C1110      C1415   1.493       .  S
C1112      C1499   1.469       .  S
Fe1113     O1129   2.110       .  S
Fe1113     O1119   2.016       .  S
Fe1113     O1126   2.024       .  S
Fe1113     O1118   2.095       .  S
Fe1113     O1124   1.934       .  S
Fe1114     O1117   2.113       .  S
Fe1114     O1121   2.054       .  S
Fe1114     O1125   2.085       .  S
Fe1114     O1130   2.016       .  S
Fe1114     O1124   1.941       .  S
Fe1115     O1133   2.031       .  S
Fe1115     O1120   2.137       .  S
Fe1115     O1127   2.112       .  S
Fe1115     O1116   2.055       .  S
Fe1115     O1124   1.925       .  S
O1116      C1123   1.264       .  A
O1117      C1131   1.274       .  A
O1118      C1123   1.273       .  A
O1119      C1122   1.268       .  A
O1120      C1132   1.288       .  A
O1121      C1134   1.271       .  A
C1122      O1127   1.284       .  A
C1122      C1303   1.470       .  S
C1123      C1328   1.478       .  S
O1125      C1128   1.274       .  A
O1126      C1128   1.264       .  A
C1128      C1286   1.476       .  S
O1129      C1134   1.279       .  A
O1130      C1132   1.264       .  A
C1131      O1133   1.259       .  A
C1131      C1314   1.493       .  S
C1132      C1275   1.486       .  S
C1134      C1457   1.496       .  S
Fe1135     O1151   2.030       .  S
Fe1135     O1141   2.093   1_565  S
Fe1135     O1148   2.105       .  S
Fe1135     O1140   2.013       .  S
Fe1135     O1146   1.935       .  S
Fe1136     O1139   2.019       .  S
Fe1136     O1143   2.089       .  S
Fe1136     O1147   2.056       .  S
Fe1136     O1152   2.103       .  S
Fe1136     O1146   1.938       .  S
Fe1137     O1155   2.137       .  S
Fe1137     O1142   2.034       .  S
Fe1137     O1149   2.056       .  S
Fe1137     O1138   2.115       .  S
Fe1137     O1146   1.929       .  S
O1138      C1145   1.285       .  A
O1139      C1153   1.265       .  A
O1140      C1145   1.268       .  A
O1141      C1144   1.271   1_545  A
O1142      C1154   1.259       .  A
O1143      C1156   1.275       .  A
C1144      O1149   1.263       .  A
C1145      C1244   1.469       .  S
O1147      C1150   1.269       .  A
O1148      C1150   1.278       .  A
C1150      C1384   1.494       .  S
O1151      C1156   1.266       .  A
O1152      C1154   1.274       .  A
C1153      O1155   1.288       .  A
C1153      C1272   1.489       .  S
C1154      C1216   1.484       .  S
C1156      C1258   1.479       .  S
Fe1157     O1173   2.035       .  S
Fe1157     O1163   2.090       .  S
Fe1157     O1170   2.109       .  S
Fe1157     O1162   2.017       .  S
Fe1157     O1168   1.935       .  S
Fe1158     O1161   2.021       .  S
Fe1158     O1165   2.092       .  S
Fe1158     O1169   2.062       .  S
Fe1158     O1174   2.120       .  S
Fe1158     O1168   1.935       .  S
Fe1159     O1177   2.139       .  S
Fe1159     O1164   2.033       .  S
Fe1159     O1171   2.055       .  S
Fe1159     O1160   2.114       .  S
Fe1159     O1168   1.925       .  S
O1160      C1167   1.285       .  A
O1161      C1175   1.265       .  A
O1162      C1167   1.269       .  A
O1163      C1166   1.271       .  A
O1164      C1176   1.258       .  A
O1165      C1178   1.276       .  A
C1166      O1171   1.264       .  A
C1166      C1219   1.474       .  S
C1167      C1289   1.481       .  S
O1169      C1172   1.272       .  A
O1170      C1172   1.278       .  A
C1172      C1345   1.500       .  S
O1173      C1178   1.266       .  A
O1174      C1176   1.277       .  A
C1175      O1177   1.288       .  A
C1175      C1205   1.484       .  S
C1176      C1230   1.493       .  S
C1178      C1300   1.483       .  S
Fe1179     O1195   2.104       .  S
Fe1179     O1185   2.016       .  S
Fe1179     O1190   1.932       .  S
Fe1180     O1183   2.118       .  S
Fe1180     O1187   2.056       .  S
Fe1180     O1191   2.095       .  S
Fe1180     O1196   2.020       .  S
Fe1180     O1190   1.937       .  S
Fe1181     O1199   2.030       .  S
Fe1181     O1186   2.139       .  S
Fe1181     O1193   2.103       .  S
Fe1181     O1190   1.926       .  S
O1182      C1189   1.265       .  A
O1183      C1197   1.276       .  A
O1184      C1189   1.273       .  A
O1185      C1188   1.268       .  A
O1186      C1198   1.288       .  A
O1187      C1200   1.271       .  A
C1188      O1193   1.281       .  A
C1188      C1261   1.474       .  S
C1189      C1317   1.476       .  S
O1191      C1194   1.278       .  A
O1195      C1200   1.276       .  A
O1196      C1198   1.264       .  A
C1197      O1199   1.257       .  A
C1197      C1331   1.495       .  S
C1198      C1202   1.484       .  S
C1200      C1359   1.500       .  S
C1201      C1202   1.411       .  A
C1201      C1206   1.408       .  A
C1201      H1208   1.084       .  S
C1202      C1203   1.409       .  A
C1203      C1204   1.409       .  A
C1203      N1210   1.438       .  S
C1204      C1205   1.411       .  A
C1204      H1209   1.084       .  S
C1205      C1206   1.408       .  A
C1206      N1207   1.437       .  S
N1207      H1211   1.045       .  S
N1207      H1212   1.045       .  S
N1210      H1213   1.045       .  S
N1210      H1214   1.046       .  S
C1215      C1216   1.403       .  A
C1215      C1220   1.406       .  A
C1215      H1222   1.084       .  S
C1216      C1217   1.418       .  A
C1217      C1218   1.408       .  A
C1217      N1224   1.438       .  S
C1218      C1219   1.399       .  A
C1218      H1223   1.084       .  S
C1219      C1220   1.412       .  A
C1220      N1221   1.438       .  S
N1221      H1225   1.046       .  S
N1221      H1226   1.045       .  S
N1224      H1227   1.045       .  S
N1224      H1228   1.046       .  S
C1229      C1230   1.405       .  A
C1229      C1234   1.411       .  A
C1229      H1236   1.084       .  S
C1230      C1231   1.420       .  A
C1231      C1232   1.408       .  A
C1231      N1238   1.437       .  S
C1232      C1233   1.397       .  A
C1232      H1237   1.084       .  S
C1233      C1234   1.413       .  A
N1235      H1239   1.045       .  S
N1235      H1240   1.045   1_565  S
N1238      H1241   1.045       .  S
N1238      H1242   1.046       .  S
C1243      C1244   1.399       .  A
C1243      C1248   1.404       .  A
C1243      H1250   1.084       .  S
C1244      C1245   1.411       .  A
C1246      H1251   1.084       .  S
C1247      C1248   1.417       .  A
C1248      N1249   1.432       .  S
N1249      H1253   1.046       .  S
N1249      H1254   1.045       .  S
N1252      H1255   1.045       .  S
N1252      H1256   1.045       .  S
C1257      C1258   1.410   1_545  A
C1257      H1264   1.083       .  S
C1258      C1771   1.414   1_554  A
C1259      C1770   1.408       .  A
C1259      C1260   1.401       .  A
C1259      N1778   1.438       .  S
C1260      H1265   1.083       .  S
C1261      C1262   1.410       .  A
C1262      N1263   1.438       .  S
N1263      H1267   1.046       .  S
N1263      H1268   1.045       .  S
N1266      C1771   1.439       .  S
N1266      H1269   1.046   1_556  S
N1266      H1782   1.046       .  S
H1270      N1778   1.045       .  S
C1271      C1784   1.412       .  A
C1271      C1276   1.405       .  A
C1271      H1790   1.084       .  S
C1272      C1783   1.414   1_554  A
C1272      C1273   1.408       .  A
C1273      C1786   1.407       .  A
C1273      N1280   1.438       .  S
C1274      C1785   1.408       .  A
C1274      C1275   1.414       .  A
C1274      H1279   1.084       .  S
C1275      C1276   1.407       .  A
C1276      N1277   1.438       .  S
N1277      H1281   1.046       .  S
N1277      H1282   1.045       .  S
H1278      C1783   1.083       .  S
N1280      H1283   1.045       .  S
N1280      H1284   1.046       .  S
C1285      C1286   1.410       .  A
C1285      C1802   1.402       .  A
C1285      H1292   1.083       .  S
C1286      C1799   1.409       .  A
C1287      C1798   1.411   1_554  A
C1287      C1288   1.399       .  A
C1287      N1806   1.438       .  S
C1288      C1289   1.408       .  A
C1288      H1293   1.083       .  S
C1289      C1290   1.409       .  A
C1290      C1797   1.403   1_554  A
C1290      N1291   1.437       .  S
N1291      H1295   1.045       .  S
N1291      H1296   1.045       .  S
N1294      C1799   1.433       .  S
N1294      H1297   1.046       .  S
N1294      H1810   1.046       .  S
H1298      N1806   1.046   1_556  S
C1299      C1300   1.412       .  A
C1299      C1304   1.403       .  A
C1299      H1306   1.084       .  S
C1300      C1301   1.415       .  A
C1301      C1302   1.398       .  A
C1301      N1308   1.438       .  S
C1302      C1303   1.403       .  A
C1302      H1307   1.084       .  S
C1303      C1304   1.403       .  A
C1304      N1305   1.433       .  S
N1305      H1309   1.046       .  S
N1305      H1310   1.046       .  S
N1308      H1311   1.046       .  S
N1308      H1312   1.046       .  S
C1313      C1314   1.411       .  A
C1313      C1318   1.405       .  A
C1313      H1320   1.084       .  S
C1314      C1315   1.415       .  A
C1315      C1316   1.412       .  A
C1315      N1322   1.437       .  S
C1316      C1317   1.405       .  A
C1316      H1321   1.084       .  S
C1317      C1318   1.403       .  A
C1318      N1319   1.436       .  S
N1319      H1323   1.046       .  S
N1319      H1324   1.045       .  S
N1322      H1325   1.045       .  S
N1322      H1326   1.046       .  S
C1327      C1328   1.405       .  A
C1327      C1332   1.411       .  A
C1327      H1334   1.084       .  S
C1328      C1329   1.404       .  A
C1329      C1330   1.407       .  A
C1329      N1336   1.438       .  S
C1330      C1331   1.414       .  A
C1330      H1335   1.084       .  S
C1331      C1332   1.414       .  A
C1332      N1333   1.437       .  S
N1333      H1337   1.045       .  S
N1333      H1338   1.046       .  S
N1336      H1339   1.046       .  S
N1336      H1340   1.046       .  S
C1341      C1342   1.407       .  A
C1341      C1346   1.406   1_655  A
C1341      H1348   1.083       .  S
C1342      C1343   1.414       .  A
C1343      C1344   1.410   1_655  A
C1343      N1350   1.432       .  S
C1344      C1345   1.409       .  A
C1344      H1349   1.083       .  S
C1345      C1346   1.414       .  A
C1346      N1347   1.432       .  S
N1347      H1351   1.046       .  S
N1347      H1352   1.046       .  S
N1350      H1353   1.046       .  S
N1350      H1354   1.046       .  S
C1355      C1356   1.407       .  A
C1355      C1360   1.401       .  A
C1355      H1362   1.084       .  S
C1356      C1357   1.413       .  A
C1357      C1358   1.405       .  A
C1357      N1364   1.432       .  S
C1358      C1359   1.409       .  A
C1358      H1363   1.083       .  S
C1359      C1360   1.422       .  A
C1360      N1361   1.432       .  S
N1361      H1365   1.046       .  S
N1361      H1366   1.045       .  S
N1364      H1367   1.046       .  S
N1364      H1368   1.045       .  S
C1369      C1370   1.412       .  A
C1369      C1886   1.408       .  A
C1369      H1376   1.084       .  S
C1370      C1371   1.408       .  A
C1371      C1372   1.407       .  A
C1371      N1378   1.437       .  S
C1372      C1885   1.412       .  A
C1372      H1377   1.084       .  S
C1373      C1884   1.414   1_554  A
C1373      C1374   1.406       .  A
C1374      C1881   1.407   1_554  A
C1374      N1375   1.432       .  S
N1375      H1379   1.046       .  S
N1375      H1380   1.046       .  S
N1378      H1381   1.043       .  S
N1378      H1382   1.046       .  S
C1383      C1384   1.407       .  A
C1383      C1388   1.409       .  A
C1383      H1390   1.083       .  S
C1384      C1385   1.412       .  A
C1385      C1386   1.406       .  A
C1385      N1392   1.433       .  S
C1386      C1387   1.408       .  A
C1386      H1391   1.084       .  S
C1387      C1388   1.416       .  A
C1388      N1389   1.438       .  S
N1389      H1393   1.046   1_565  S
N1389      H1394   1.045       .  S
N1392      H1395   1.046       .  S
N1392      H1396   1.046       .  S
C1397      C1398   1.405       .  A
C1397      C1402   1.409       .  A
C1397      H1404   1.084       .  S
C1398      C1399   1.406       .  A
C1399      C1400   1.399       .  A
C1399      N1406   1.433       .  S
C1400      C1401   1.412       .  A
C1400      H1405   1.084       .  S
C1401      C1402   1.412       .  A
C1402      N1403   1.432       .  S
N1403      H1407   1.045       .  S
N1403      H1408   1.045       .  S
N1406      H1409   1.046       .  S
N1406      H1410   1.045       .  S
C1411      C1412   1.404       .  A
C1411      C1416   1.409       .  A
C1412      C1413   1.402       .  A
C1413      C1414   1.405       .  A
C1413      N1420   1.432       .  S
C1414      C1415   1.414       .  A
C1414      H1419   1.084       .  S
C1415      C1416   1.412       .  A
C1416      N1417   1.432       .  S
N1417      H1421   1.046       .  S
N1417      H1422   1.046       .  S
N1420      H1423   1.046       .  S
N1420      H1424   1.046       .  S
C1425      C1426   1.411       .  A
C1425      C1942   1.401       .  A
C1425      H1432   1.083       .  S
C1426      C1427   1.415       .  A
C1427      C1940   1.406   1_554  A
C1427      N1434   1.438       .  S
C1428      C1939   1.400       .  A
C1428      C1429   1.404       .  A
C1428      H1433   1.084       .  S
C1429      C1430   1.401       .  A
C1430      C1937   1.397       .  A
C1430      N1431   1.432       .  S
N1431      H1435   1.046   1_565  S
N1434      H1437   1.046       .  S
N1434      H1438   1.046       .  S
C1439      C1440   1.412       .  A
C1439      H1446   1.084       .  S
C1441      C1442   1.406       .  A
C1441      N1448   1.437       .  S
C1442      C1443   1.408   1_545  A
C1442      H1447   1.083       .  S
C1443      C1444   1.408       .  A
C1444      N1445   1.433       .  S
N1445      H1449   1.044       .  S
N1445      H1450   1.046       .  S
N1448      H1452   1.046       .  S
C1453      C1454   1.406       .  A
C1453      C1458   1.406   1_655  A
C1453      H1460   1.084       .  S
C1454      C1455   1.415       .  A
C1455      C1456   1.406   1_655  A
C1455      N1462   1.433       .  S
C1456      C1457   1.407       .  A
C1456      H1461   1.084       .  S
C1457      C1458   1.415       .  A
C1458      N1459   1.432       .  S
N1459      H1463   1.046       .  S
N1459      H1464   1.046       .  S
N1462      H1465   1.046       .  S
N1462      H1466   1.046       .  S
C1467      C1468   1.400       .  A
C1467      C1472   1.403       .  A
C1467      H1474   1.084       .  S
C1468      C1469   1.417       .  A
C1469      C1470   1.403       .  A
C1469      N1476   1.432       .  S
C1470      C1471   1.399       .  A
C1470      H1475   1.084       .  S
C1471      C1472   1.425       .  A
C1472      N1473   1.434       .  S
N1473      H1477   1.044       .  S
N1473      H1478   1.045       .  S
N1476      H1479   1.046       .  S
N1476      H1480   1.046       .  S
C1481      C1482   1.394       .  A
C1481      C1486   1.397       .  A
C1481      H1488   1.084       .  S
C1482      C1483   1.417       .  A
C1483      C1484   1.395       .  A
C1483      N1490   1.434       .  S
C1484      C1485   1.400       .  A
C1484      H1489   1.084       .  S
C1485      C1486   1.419       .  A
C1486      N1487   1.434       .  S
N1487      H1491   1.046       .  S
N1487      H1492   1.046       .  S
N1490      H1493   1.045       .  S
N1490      H1494   1.044       .  S
C1495      C1496   1.412       .  A
C1495      C2012   1.392       .  A
C1495      H1502   1.084       .  S
C1496      C1497   1.408       .  A
C1497      C1498   1.401       .  A
C1497      N1504   1.432       .  S
C1498      C2011   1.408       .  A
C1498      H2015   1.084       .  S
C1499      C2010   1.407       .  A
C1499      C1500   1.407   1_554  A
C1500      C2007   1.392       .  A
C1500      N1501   1.433       .  S
N1501      H1505   1.044   1_556  S
N1501      H1506   1.046   1_556  S
H1503      C2010   1.084       .  S
N1504      H1507   1.046       .  S
N1504      H1508   1.046       .  S
C1509      C1510   1.399       .  A
C1509      C1514   1.407       .  A
C1509      H1516   1.084       .  S
C1510      C1511   1.411       .  A
C1511      C1512   1.408       .  A
C1511      N1518   1.438       .  S
C1512      C1513   1.405       .  A
C1512      H1517   1.084       .  S
C1513      C1514   1.416       .  A
C1514      N1515   1.433       .  S
N1515      H1519   1.045       .  S
N1515      H1520   1.046       .  S
N1518      H1521   1.046       .  S
N1518      H1522   1.046       .  S
C1523      C1524   1.397       .  A
C1523      C1528   1.405       .  A
C1523      H1530   1.083       .  S
C1524      C1525   1.414       .  A
C1525      C1526   1.403       .  A
C1525      N1532   1.432       .  S
C1526      C1527   1.404       .  A
C1526      H1531   1.084       .  S
C1527      C1528   1.418       .  A
C1528      N1529   1.433       .  S
N1529      H1533   1.046       .  S
N1529      H1534   1.046       .  S
N1532      H1535   1.045       .  S
N1532      H1536   1.045       .  S
Fe1537     O1553   2.112       .  S
Fe1537     O1543   2.021       .  S
Fe1537     O1550   2.041       .  S
Fe1537     O1542   2.091       .  S
Fe1537     O1548   1.928       .  S
Fe1538     O1541   2.116       .  S
Fe1538     O1545   2.055       .  S
Fe1538     O1549   2.089       .  S
Fe1538     O1554   2.013       .  S
Fe1538     O1548   1.937       .  S
Fe1539     O1557   2.041       .  S
Fe1539     O1544   2.132       .  S
Fe1539     O1551   2.105       .  S
Fe1539     O1540   2.066       .  S
Fe1539     O1548   1.928       .  S
O1540      C1547   1.267       .  A
O1541      C1555   1.274       .  A
O1542      C1547   1.273       .  A
O1543      C1546   1.269       .  A
O1544      C1556   1.287       .  A
O1545      C1558   1.271       .  A
C1546      O1551   1.281       .  A
C1546      C2008   1.480       .  S
C1547      C2036   1.480       .  S
O1549      C1552   1.275       .  A
O1550      C1552   1.264       .  A
C1552      C1994   1.478       .  S
O1553      C1558   1.280       .  A
O1554      C1556   1.263       .  A
C1555      O1557   1.259       .  A
C1555      C2025   1.485       .  S
C1556      C1980   1.475       .  S
C1558      C1966   1.500       .  S
Fe1559     O1575   2.038       .  S
Fe1559     O1565   2.094   1_565  S
Fe1559     O1572   2.111       .  S
Fe1559     O1564   2.023       .  S
Fe1559     O1570   1.929       .  S
Fe1560     O1563   2.004       .  S
Fe1560     O1567   2.096       .  S
Fe1560     O1571   2.049       .  S
Fe1560     O1576   2.112       .  S
Fe1560     O1570   1.934       .  S
Fe1561     O1579   2.133       .  S
Fe1561     O1566   2.032       .  S
Fe1561     O1573   2.053       .  S
Fe1561     O1562   2.105       .  S
Fe1561     O1570   1.928       .  S
O1562      C1569   1.283       .  A
O1563      C1577   1.260       .  A
O1564      C1569   1.269       .  A
O1565      C1568   1.273   1_545  A
O1566      C1578   1.259       .  A
O1567      C1580   1.276       .  A
C1568      O1573   1.264       .  A
C1569      C1938   1.479       .  S
O1571      C1574   1.269       .  A
O1572      C1574   1.278       .  A
C1574      C1899   1.496       .  S
O1575      C1580   1.267       .  A
O1576      C1578   1.275       .  A
C1577      O1579   1.286       .  A
C1577      C1983   1.475       .  S
C1578      C1913   1.489       .  S
C1580      C1955   1.482       .  S
Fe1581     O1597   2.097       .  S
Fe1581     O1587   2.021       .  S
Fe1581     O1592   1.933       .  S
Fe1582     O1585   2.120       .  S
Fe1582     O1589   2.058       .  S
Fe1582     O1593   2.100       .  S
Fe1582     O1598   2.020       .  S
Fe1582     O1592   1.938       .  S
Fe1583     O1601   2.034       .  S
Fe1583     O1588   2.144       .  S
Fe1583     O1595   2.125       .  S
Fe1583     O1592   1.926       .  S
O1584      C1591   1.264   1_545  A
O1585      C1599   1.277       .  A
O1586      C1591   1.270       .  A
O1587      C1590   1.270       .  A
O1588      C1600   1.290       .  A
O1589      C1602   1.270       .  A
C1590      O1595   1.287       .  A
C1590      C1952   1.490       .  S
C1591      C2022   1.480       .  S
O1593      C1596   1.278       .  A
O1597      C1602   1.275       .  A
O1598      C1600   1.264       .  A
C1599      O1601   1.260       .  A
C1599      C2039   1.492       .  S
C1600      C1882   1.493       .  S
C1602      C1868   1.489       .  S
Fe1603     O1619   2.030       .  S
Fe1603     O1609   2.086       .  S
Fe1603     O1616   2.100       .  S
Fe1603     O1608   2.020       .  S
Fe1603     O1614   1.928       .  S
Fe1604     O1607   2.012       .  S
Fe1604     O1611   2.088       .  S
Fe1604     O1615   2.050       .  S
Fe1604     O1620   2.107       .  S
Fe1604     O1614   1.937       .  S
Fe1605     O1623   2.141       .  S
Fe1605     O1610   2.029       .  S
Fe1605     O1617   2.055       .  S
Fe1605     O1606   2.118       .  S
Fe1605     O1614   1.920       .  S
O1606      C1613   1.286       .  A
O1607      C1621   1.263       .  A
O1608      C1613   1.267       .  A
O1609      C1612   1.271       .  A
O1610      C1622   1.258       .  A
O1611      C1624   1.274       .  A
C1612      O1617   1.264       .  A
C1612      C1910   1.473       .  S
C1613      C1997   1.488       .  S
O1615      C1618   1.269       .  A
O1616      C1618   1.277       .  A
C1618      C1854   1.491       .  S
O1619      C1624   1.265       .  A
O1620      C1622   1.273       .  A
C1621      O1623   1.289       .  A
C1621      C1885   1.483       .  S
C1622      C1927   1.490       .  S
C1624      C2011   1.473       .  S
Fe1625     O1641   2.110       .  S
Fe1625     O1631   2.012       .  S
Fe1625     O1638   2.026       .  S
Fe1625     O1630   2.099       .  S
Fe1625     O1636   1.936       .  S
Fe1626     O1629   2.114       .  S
Fe1626     O1633   2.053       .  S
Fe1626     O1637   2.095       .  S
Fe1626     O1642   2.009       .  S
Fe1626     O1636   1.937       .  S
Fe1627     O1645   2.029       .  S
Fe1627     O1632   2.141       .  S
Fe1627     O1639   2.114       .  S
Fe1627     O1628   2.059       .  S
Fe1627     O1636   1.923       .  S
O1628      C1635   1.264       .  A
O1629      C1643   1.276       .  A
O1630      C1635   1.272       .  A
O1631      C1634   1.269       .  A
O1632      C1644   1.289       .  A
O1633      C1646   1.269       .  A
C1634      O1639   1.286       .  A
C1634      C1815   1.482       .  S
C1635      C1840   1.482       .  S
O1637      C1640   1.278       .  A
O1638      C1640   1.267       .  A
C1640      C1798   1.483       .  S
O1641      C1646   1.277       .  A
O1642      C1644   1.262       .  A
C1643      O1645   1.259       .  A
C1643      C1826   1.495       .  S
C1644      C1787   1.488       .  S
C1646      C1969   1.499       .  S
Fe1647     O1663   2.031       .  S
Fe1647     O1653   2.096       .  S
Fe1647     O1660   2.104       .  S
Fe1647     O1652   2.013       .  S
Fe1647     O1658   1.934       .  S
Fe1648     O1651   2.011       .  S
Fe1648     O1655   2.098       .  S
Fe1648     O1659   2.061       .  S
Fe1648     O1664   2.116       .  S
Fe1648     O1658   1.938       .  S
Fe1649     O1667   2.140       .  S
Fe1649     O1654   2.031       .  S
Fe1649     O1661   2.062       .  S
Fe1649     O1650   2.110       .  S
Fe1649     O1658   1.927       .  S
O1650      C1657   1.284       .  A
O1651      C1665   1.264       .  A
O1652      C1657   1.267       .  A
O1653      C1656   1.271       .  A
O1654      C1666   1.258       .  A
O1655      C1668   1.279       .  A
C1656      O1661   1.265       .  A
C1657      C1756   1.463       .  S
O1659      C1662   1.271       .  A
O1660      C1662   1.277       .  A
C1662      C1896   1.498       .  S
O1663      C1668   1.267       .  A
O1664      C1666   1.276       .  A
C1665      O1667   1.288       .  A
C1665      C1784   1.486       .  S
C1666      C1728   1.491       .  S
C1668      C1770   1.478       .  S
Fe1669     O1685   2.022       .  S
Fe1669     O1675   2.093       .  S
Fe1669     O1682   2.098       .  S
Fe1669     O1674   2.009       .  S
Fe1669     O1680   1.929       .  S
Fe1670     O1673   2.005       .  S
Fe1670     O1677   2.096       .  S
Fe1670     O1681   2.052       .  S
Fe1670     O1686   2.118       .  S
Fe1670     O1680   1.939       .  S
Fe1671     O1689   2.119       .  S
Fe1671     O1676   2.040       .  S
Fe1671     O1683   2.054       .  S
Fe1671     O1672   2.105       .  S
Fe1671     O1680   1.924       .  S
O1672      C1679   1.283       .  A
O1673      C1687   1.262       .  A
O1674      C1679   1.267       .  A
O1675      C1678   1.271       .  A
O1676      C1688   1.260       .  A
O1677      C1690   1.276       .  A
C1678      O1683   1.263       .  A
C1678      C1731   1.477       .  S
C1679      C1801   1.470       .  S
O1681      C1684   1.270       .  A
O1682      C1684   1.278       .  A
C1684      C1857   1.492       .  S
O1685      C1690   1.264       .  A
O1686      C1688   1.276       .  A
C1687      O1689   1.285       .  A
C1687      C1717   1.475       .  S
C1688      C1742   1.492       .  S
C1690      C1812   1.466       .  S
Fe1691     O1707   2.114       .  S
Fe1691     O1697   2.021       .  S
Fe1691     O1702   1.930       .  S
Fe1692     O1695   2.123       .  S
Fe1692     O1699   2.045       .  S
Fe1692     O1703   2.096       .  S
Fe1692     O1708   2.001       .  S
Fe1692     O1702   1.936       .  S
Fe1693     O1711   2.035       .  S
Fe1693     O1698   2.127       .  S
Fe1693     O1705   2.095       .  S
Fe1693     O1702   1.929       .  S
O1694      C1701   1.264       .  A
O1695      C1709   1.276       .  A
O1696      C1701   1.273       .  A
O1697      C1700   1.268       .  A
O1698      C1710   1.285       .  A
O1699      C1712   1.270       .  A
C1700      O1705   1.279       .  A
C1700      C1773   1.466       .  S
C1701      C1829   1.477       .  S
O1703      C1706   1.276       .  A
O1707      C1712   1.280       .  A
O1708      C1710   1.262       .  A
C1709      O1711   1.258       .  A
C1709      C1843   1.496       .  S
C1710      C1714   1.480       .  S
C1712      C1871   1.491       .  S
C1713      C1714   1.413       .  A
C1713      C1718   1.397       .  A
C1713      H1720   1.084       .  S
C1714      C1715   1.409       .  A
C1715      C1716   1.404       .  A
C1715      N1722   1.438       .  S
C1716      C1717   1.412       .  A
C1716      H1721   1.084       .  S
C1717      C1718   1.401       .  A
C1718      N1719   1.432       .  S
N1719      H1723   1.045       .  S
N1719      H1724   1.046       .  S
N1722      H1725   1.045       .  S
N1722      H1726   1.046       .  S
C1727      C1728   1.405       .  A
C1727      C1732   1.409       .  A
C1727      H1734   1.084       .  S
C1728      C1729   1.420       .  A
C1729      C1730   1.409       .  A
C1729      N1736   1.438       .  S
C1730      C1731   1.398       .  A
C1730      H1735   1.084       .  S
C1731      C1732   1.411       .  A
C1732      N1733   1.438       .  S
N1733      H1737   1.046       .  S
N1733      H1738   1.046       .  S
N1736      H1739   1.045       .  S
N1736      H1740   1.046       .  S
C1741      C1742   1.406       .  A
C1741      C1746   1.408       .  A
C1741      H1748   1.084       .  S
C1742      C1743   1.419       .  A
C1743      C1744   1.411       .  A
C1743      N1750   1.437       .  S
C1744      C1745   1.399       .  A
C1744      H1749   1.084       .  S
C1745      C1746   1.409       .  A
N1747      H1751   1.046   1_565  S
N1747      H1752   1.044   1_565  S
N1750      H1753   1.046       .  S
N1750      H1754   1.045       .  S
C1755      C1756   1.397       .  A
C1755      C1760   1.400       .  A
C1755      H1762   1.084       .  S
C1756      C1757   1.412   1_565  A
C1758      H1763   1.084       .  S
C1759      C1760   1.416       .  A
C1760      N1761   1.432       .  S
N1761      H1765   1.046       .  S
N1761      H1766   1.045       .  S
N1764      H1767   1.046       .  S
N1764      H1768   1.045       .  S
C1769      C1770   1.408       .  A
C1769      H1776   1.084   1_565  S
C1771      C1772   1.396       .  A
C1772      H1777   1.084       .  S
C1773      C1774   1.403       .  A
C1774      N1775   1.433       .  S
N1775      H1779   1.046       .  S
N1775      H1780   1.046       .  S
N1778      H1781   1.046       .  S
C1783      C1788   1.408       .  A
C1784      C1785   1.408       .  A
C1785      N1792   1.438       .  S
C1786      C1787   1.414   1_554  A
C1786      H1791   1.084       .  S
C1787      C1788   1.407       .  A
C1788      N1789   1.438       .  S
N1789      H1793   1.046       .  S
N1789      H1794   1.046       .  S
N1792      H1795   1.044       .  S
N1792      H1796   1.046       .  S
C1797      C1798   1.410       .  A
C1797      H1804   1.083       .  S
C1799      C1800   1.392       .  A
C1800      C1801   1.405       .  A
C1800      H1805   1.084       .  S
C1801      C1802   1.407       .  A
C1802      N1803   1.437       .  S
N1803      H1807   1.046       .  S
N1803      H1808   1.045       .  S
N1806      H1809   1.046       .  S
C1811      C1812   1.405       .  A
C1811      C1816   1.402       .  A
C1811      H1818   1.084       .  S
C1812      C1813   1.400       .  A
C1813      C1814   1.395       .  A
C1813      N1820   1.433       .  S
C1814      C1815   1.413       .  A
C1814      H1819   1.083       .  S
C1815      C1816   1.412       .  A
C1816      N1817   1.438       .  S
N1817      H1821   1.046       .  S
N1817      H1822   1.046       .  S
N1820      H1823   1.046       .  S
N1820      H1824   1.046       .  S
C1825      C1826   1.413       .  A
C1825      C1830   1.405       .  A
C1825      H1832   1.084       .  S
C1826      C1827   1.414       .  A
C1827      C1828   1.412       .  A
C1827      N1834   1.437       .  S
C1828      C1829   1.405       .  A
C1828      H1833   1.084       .  S
C1829      C1830   1.404       .  A
C1830      N1831   1.437       .  S
N1831      H1835   1.046       .  S
N1831      H1836   1.045       .  S
N1834      H1837   1.046       .  S
N1834      H1838   1.046       .  S
C1839      C1840   1.405       .  A
C1839      C1844   1.409       .  A
C1839      H1846   1.084       .  S
C1840      C1841   1.405       .  A
C1841      C1842   1.410       .  A
C1841      N1848   1.437       .  S
C1842      C1843   1.413       .  A
C1842      H1847   1.084       .  S
C1843      C1844   1.413       .  A
C1844      N1845   1.432       .  S
N1845      H1849   1.045       .  S
N1845      H1850   1.045       .  S
N1848      H1851   1.046       .  S
N1848      H1852   1.046       .  S
C1853      C1854   1.408       .  A
C1853      C1858   1.404   1_655  A
C1853      H1860   1.084       .  S
C1854      C1855   1.416       .  A
C1855      C1856   1.405   1_655  A
C1855      N1862   1.438       .  S
C1856      C1857   1.407       .  A
C1856      H1861   1.083       .  S
C1857      C1858   1.413       .  A
C1858      N1859   1.433       .  S
N1859      H1863   1.046       .  S
N1859      H1864   1.046       .  S
N1862      H1865   1.046       .  S
N1862      H1866   1.045       .  S
C1867      C1868   1.406       .  A
C1867      C1872   1.403       .  A
C1867      H1874   1.084       .  S
C1868      C1869   1.411       .  A
C1869      C1870   1.403       .  A
C1869      N1876   1.432       .  S
C1870      C1871   1.406       .  A
C1870      H1875   1.084       .  S
C1871      C1872   1.420       .  A
C1872      N1873   1.433       .  S
N1873      H1877   1.046       .  S
N1873      H1878   1.045       .  S
N1876      H1879   1.046       .  S
N1876      H1880   1.046       .  S
C1881      C1882   1.415       .  A
C1881      H1888   1.084   1_556  S
C1882      C1883   1.410       .  A
C1883      C1884   1.409       .  A
C1883      N1890   1.438       .  S
C1884      H1889   1.084       .  S
C1885      C1886   1.408       .  A
C1886      N1887   1.438       .  S
N1887      H1891   1.046       .  S
N1887      H1892   1.045       .  S
N1890      H1893   1.044       .  S
N1890      H1894   1.046       .  S
C1895      C1896   1.409       .  A
C1895      C1900   1.410       .  A
C1895      H1902   1.083       .  S
C1896      C1897   1.413       .  A
C1897      C1898   1.405       .  A
C1897      N1904   1.432       .  S
C1898      C1899   1.408       .  A
C1898      H1903   1.084       .  S
C1899      C1900   1.416       .  A
C1900      N1901   1.438   1_565  S
N1901      H1905   1.046       .  S
N1901      H1906   1.045   1_545  S
N1904      H1907   1.046       .  S
N1904      H1908   1.046       .  S
C1909      C1910   1.403       .  A
C1909      C1914   1.406       .  A
C1909      H1916   1.084       .  S
C1910      C1911   1.407       .  A
C1911      C1912   1.400       .  A
C1911      N1918   1.433       .  S
C1912      C1913   1.412       .  A
C1912      H1917   1.084       .  S
C1913      C1914   1.412       .  A
C1914      N1915   1.432       .  S
N1915      H1919   1.046       .  S
N1915      H1920   1.045       .  S
N1918      H1921   1.046       .  S
N1918      H1922   1.045       .  S
C1923      C1924   1.403       .  A
C1923      C1928   1.407       .  A
C1924      C1925   1.400       .  A
C1925      C1926   1.400       .  A
C1925      N1932   1.433       .  S
C1926      C1927   1.413       .  A
C1926      H1931   1.084       .  S
C1927      C1928   1.413       .  A
C1928      N1929   1.432       .  S
N1929      H1933   1.046       .  S
N1929      H1934   1.045       .  S
N1932      H1935   1.045       .  S
N1932      H1936   1.046       .  S
C1937      C1938   1.410       .  A
C1937      H1944   1.084       .  S
C1938      C1939   1.410       .  A
C1939      N1946   1.432       .  S
C1940      C1941   1.405       .  A
C1940      H1945   1.084       .  S
C1941      C1942   1.405   1_556  A
C1942      N1943   1.438   1_554  S
N1943      H1947   1.046   1_556  S
N1946      H1949   1.046       .  S
N1946      H1950   1.046       .  S
C1951      C1952   1.413       .  A
C1951      H1958   1.084       .  S
C1953      C1954   1.404       .  A
C1953      N1960   1.432       .  S
C1954      C1955   1.410   1_545  A
C1954      H1959   1.084       .  S
C1955      C1956   1.413       .  A
C1956      N1957   1.433       .  S
N1957      H1961   1.045       .  S
N1957      H1962   1.045       .  S
N1960      H1964   1.046       .  S
C1965      C1966   1.408       .  A
C1965      C1970   1.407   1_655  A
C1965      H1972   1.083       .  S
C1966      C1967   1.419       .  A
C1967      C1968   1.409   1_655  A
C1967      N1974   1.438       .  S
C1968      C1969   1.407       .  A
C1968      H1973   1.083       .  S
C1969      C1970   1.414       .  A
C1970      N1971   1.432       .  S
N1971      H1975   1.046       .  S
N1971      H1976   1.046       .  S
N1974      H1977   1.046       .  S
N1974      H1978   1.045       .  S
C1979      C1980   1.398       .  A
C1979      C1984   1.397       .  A
C1979      H1986   1.084       .  S
C1980      C1981   1.416       .  A
C1981      C1982   1.403       .  A
C1981      N1988   1.434       .  S
C1982      C1983   1.400       .  A
C1982      H1987   1.084       .  S
C1983      C1984   1.423       .  A
C1984      N1985   1.434       .  S
N1985      H1989   1.044       .  S
N1985      H1990   1.045       .  S
N1988      H1991   1.046       .  S
N1988      H1992   1.046       .  S
C1993      C1994   1.398       .  A
C1993      C1998   1.397       .  A
C1993      H2000   1.084       .  S
C1994      C1995   1.420       .  A
C1995      C1996   1.400       .  A
C1995      N2002   1.433       .  S
C1996      C1997   1.404       .  A
C1996      H2001   1.084       .  S
C1997      C1998   1.420       .  A
C1998      N1999   1.433       .  S
N1999      H2003   1.046       .  S
N1999      H2004   1.046       .  S
N2002      H2005   1.046       .  S
N2002      H2006   1.045       .  S
C2007      C2008   1.410       .  A
C2007      H2014   1.084       .  S
C2008      C2009   1.409       .  A
C2009      C2010   1.402   1_556  A
C2009      N2016   1.432       .  S
C2011      C2012   1.409       .  A
C2012      N2013   1.433       .  S
N2013      H2017   1.044       .  S
N2013      H2018   1.046       .  S
N2016      H2019   1.046       .  S
N2016      H2020   1.046       .  S
C2021      C2022   1.400       .  A
C2021      C2026   1.407       .  A
C2021      H2028   1.084       .  S
C2022      C2023   1.414       .  A
C2023      C2024   1.410       .  A
C2023      N2030   1.438       .  S
C2024      C2025   1.404       .  A
C2024      H2029   1.084       .  S
C2025      C2026   1.412       .  A
C2026      N2027   1.432       .  S
N2027      H2031   1.045       .  S
N2027      H2032   1.046       .  S
N2030      H2033   1.045       .  S
N2030      H2034   1.045       .  S
C2035      C2036   1.399       .  A
C2035      C2040   1.406       .  A
C2035      H2042   1.084       .  S
C2036      C2037   1.414       .  A
C2037      C2038   1.405       .  A
C2037      N2044   1.432       .  S
C2038      C2039   1.406       .  A
C2038      H2043   1.084       .  S
C2039      C2040   1.418       .  A
C2040      N2041   1.433       .  S
N2041      H2045   1.046       .  S
N2041      H2046   1.046       .  S
N2044      H2047   1.045       .  S
N2044      H2048   1.046       .  S
