geometry optimzed in LAMMPS
_audit_creation_date              2020-12-01 
_audit_creation_method            'lammps2cif' 
_symmetry_space_group_name_H-M    'P1' 
_symmetry_Int_Tables_number       1 
_symmetry_cell_setting            triclinic 
loop_ 
_symmetry_equiv_pos_as_xyz 
  x,y,z 
_cell_length_a                    49.48850971 
_cell_length_b                    27.5626368030516 
_cell_length_c                    30.006917759151936 
_cell_angle_alpha                 90.24612406530903 
_cell_angle_beta                  95.08598982132146 
_cell_angle_gamma                 90.07555241344218 
loop_ 
_atom_site_label 
_atom_site_type_symbol 
_atom_site_fract_x 
_atom_site_fract_y 
_atom_site_fract_z 
_atom_site_charge 
Fe1        Fe  0.84023478  0.51088665  0.71492245     1.65800
Fe2        Fe  0.83989291  0.61511846  0.65843934     1.73200
Fe3        Fe  0.79144084  0.59327997  0.72800763     1.54400
O4          O  0.77047701  0.53076032  0.70892151    -0.81800
O5          O  0.82790414  0.67947444  0.68856977    -0.80100
O6          O  0.80331505  0.47608085  0.72102387    -0.84300
O7          O  0.84431443  0.52810325  0.78122256    -0.79100
O8          O  0.77494628  0.62758474  0.66908594    -0.80900
O9          O  0.87632836  0.61659649  0.69688843    -0.83700
C10         C  0.82688893  0.54411731  0.80604169     0.97100
C11         C  0.77829769  0.48715694  0.71433690     1.04500
O12         O  0.82370693  0.57299526  0.70053493    -1.12600
O13         O  0.85294131  0.55772568  0.62019887    -0.75100
O14         O  0.83689990  0.49071449  0.64906223    -0.78600
O15         O  0.80466693  0.56330409  0.79012413    -0.79200
C16         C  0.84577498  0.51337948  0.61677546     0.96000
O17         O  0.87940472  0.53746055  0.71116422    -0.77200
O18         O  0.80457695  0.61452785  0.61835444    -0.82400
C19         C  0.81754085  0.68937314  0.72489131     0.98600
C20         C  0.78182852  0.62936170  0.62904817     1.04600
O21         O  0.80988964  0.65631616  0.74999114    -0.78000
C22         C  0.89010495  0.57942816  0.70922245     1.02900
Fe23       Fe  0.65064641  0.92571091  0.26610821     1.65800
Fe24       Fe  0.64564021  0.81794442  0.31586269     1.73200
Fe25       Fe  0.70179251  0.84484177  0.26257341     1.54400
O26         O  0.68989757  0.86885540  0.19721240    -0.81800
O27         O  0.67787213  0.80858761  0.36120706    -0.80100
O28         O  0.65016657  0.90772142  0.20026012    -0.84300
O29         O  0.68722485  0.96219922  0.26373592    -0.79100
O30         O  0.68946745  0.77736333  0.24149718    -0.80900
O31         O  0.63389123  0.87471410  0.35685296    -0.83700
C32         C  0.71202028  0.95253900  0.27386323     0.97100
C33         C  0.66812413  0.88784713  0.17851015     1.04500
O34         O  0.66630005  0.86240524  0.28149401    -1.12600
O35         O  0.61125263  0.82361341  0.27284548    -0.75100
O36         O  0.61046460  0.90329496  0.26580427    -0.78600
O37         O  0.72002267  0.90962519  0.28099435    -0.79200
C38         C  0.59845431  0.86256089  0.26431251     0.96000
O39         O  0.65128898  0.94323179  0.33211800    -0.77200
O40         O  0.65572850  0.75540224  0.28135582    -0.82400
C41         C  0.70342379  0.80912158  0.36126906     0.98600
C42         C  0.67299042  0.74604389  0.25355165     1.04600
O43         O  0.71559735  0.81918162  0.32657803    -0.78000
C44         C  0.64138354  0.91892689  0.36259428     1.02900
Fe45       Fe  0.64542378  0.01111849  0.76960600     1.65800
Fe46       Fe  0.64949802  0.11499262  0.82829680     1.73200
Fe47       Fe  0.69579373  0.08999805  0.75578307     1.54400
O48         O  0.71513546  0.02670694  0.77591125    -0.81800
O49         O  0.66137616  0.17842493  0.79596539    -0.80100
O50         O  0.68138877  0.97433829  0.76058335    -0.84300
O51         O  0.64050737  0.02866709  0.70356853    -0.79100
O52         O  0.71389251  0.12578621  0.81310113    -0.80900
O53         O  0.61181897  0.11799792  0.79342303    -0.83700
C54         C  0.65875029  0.04064660  0.67870199     0.97100
C55         C  0.70660246  0.98379220  0.76808249     1.04500
O56         O  0.66345987  0.07223175  0.78424346    -1.12600
O57         O  0.63726643  0.05799795  0.86780857    -0.75100
O58         O  0.64978811  0.99028827  0.83504469    -0.78600
O59         O  0.68152079  0.05819211  0.69452921    -0.79200
C60         C  0.64311590  0.01297450  0.86916706     0.96000
O61         O  0.60693019  0.03964812  0.77577318    -0.77200
O62         O  0.68582538  0.11310675  0.86590759    -0.82400
C63         C  0.67119292  0.18758560  0.75889596     0.98600
C64         C  0.70802742  0.12848845  0.85359930     1.04600
O65         O  0.67859721  0.15401451  0.73370434    -0.78000
C66         C  0.59715950  0.08200015  0.78014264     1.02900
Fe67       Fe  0.84182826  0.42688820  0.21572663     1.65800
Fe68       Fe  0.84495536  0.31961868  0.16352117     1.73200
Fe69       Fe  0.79009453  0.34779735  0.21879165     1.54400
O70         O  0.80087563  0.37621933  0.28321568    -0.81800
O71         O  0.81247984  0.31435950  0.11741643    -0.80100
O72         O  0.84212705  0.40962411  0.28173771    -0.84300
O73         O  0.80521213  0.46405898  0.21809658    -0.79100
O74         O  0.80305686  0.28193550  0.24289522    -0.80900
O75         O  0.85848233  0.37622567  0.12435624    -0.83700
C76         C  0.78056027  0.45437294  0.20578681     0.97100
C77         C  0.82274704  0.39398008  0.30285338     1.04500
O78         O  0.82549855  0.36427142  0.19957178    -1.12600
O79         O  0.87950768  0.32206199  0.20733034    -0.75100
O80         O  0.88168038  0.40192529  0.21586666    -0.78600
O81         O  0.77281907  0.41159933  0.19649946    -0.79200
C82         C  0.89292818  0.36044863  0.21677508     0.96000
O83         O  0.84125191  0.44450738  0.14988520    -0.77200
O84         O  0.83257060  0.25716729  0.19586527    -0.82400
C85         C  0.78714334  0.31114040  0.11984489     0.98600
C86         C  0.81710138  0.24899863  0.22677836     1.04600
O87         O  0.77611270  0.31779895  0.15630543    -0.78000
C88         C  0.85084625  0.42026387  0.11892668     1.02900
Fe89       Fe  0.14347804  0.50813790  0.77392013     1.65800
Fe90       Fe  0.14312290  0.61588639  0.82502314     1.73200
Fe91       Fe  0.19383608  0.58730674  0.76181348     1.54400
O92         O  0.21301664  0.52469776  0.78451253    -0.81800
O93         O  0.15649730  0.67811927  0.79301251    -0.80100
O94         O  0.17987930  0.47156281  0.76839394    -0.84300
O95         O  0.14013812  0.52287512  0.70760393    -0.79100
O96         O  0.20938931  0.62320964  0.82097145    -0.80900
O97         O  0.10775375  0.61478929  0.78333515    -0.83700
C98         C  0.15848519  0.53654270  0.68357563     0.97100
C99         C  0.20487900  0.48150328  0.77727399     1.04500
O100        O  0.16033604  0.57061266  0.78679094    -1.12600
O101        O  0.12932045  0.56061551  0.86471586    -0.75100
O102        O  0.14692478  0.49234494  0.84020446    -0.78600
O103        O  0.18099535  0.55473135  0.70015846    -0.79200
C104        C  0.13818871  0.51759259  0.87118702     0.96000
O105        O  0.10424016  0.53475089  0.77665064    -0.77200
O106        O  0.17705250  0.61816288  0.86835518    -0.82400
C107        C  0.16924278  0.68545883  0.75854755     0.98600
C108        C  0.20087349  0.62888783  0.85970490     1.04600
O109        O  0.17782601  0.65059112  0.73623683    -0.78000
C110        C  0.09371192  0.57690758  0.77403044     1.02900
Fe111      Fe  0.34358734  0.92348096  0.21837838     1.65800
Fe112      Fe  0.34586777  0.81599686  0.16635529     1.73200
Fe113      Fe  0.29287646  0.84325852  0.22642639     1.54400
O114        O  0.30582962  0.87158404  0.29034126    -0.81800
O115        O  0.31244363  0.81025557  0.12246782    -0.80100
O116        O  0.34622607  0.90667203  0.28448124    -0.84300
O117        O  0.30730890  0.96018764  0.22386761    -0.79100
O118        O  0.30665701  0.77706358  0.24909348    -0.80900
O119        O  0.35826669  0.87320564  0.12613148    -0.83700
C120        C  0.28244829  0.95032607  0.21404532     0.97100
C121        C  0.32801359  0.89057187  0.30778112     1.04500
O122        O  0.32724191  0.86045582  0.20384749    -1.12600
O123        O  0.38122250  0.81928406  0.20812347    -0.75100
O124        O  0.38308471  0.89938655  0.21490763    -0.78600
O125        O  0.27441942  0.90728898  0.20637823    -0.79200
C126        C  0.39451101  0.85817928  0.21579745     0.96000
O127        O  0.34098173  0.94097461  0.15260486    -0.77200
O128        O  0.33433780  0.75254598  0.19913239    -0.82400
C129        C  0.28737468  0.80613619  0.12709908     0.98600
C130        C  0.31954123  0.74381475  0.23094740     1.04600
O131        O  0.27737060  0.81318503  0.16450232    -0.78000
C132        C  0.35058740  0.91736823  0.12131650     1.02900
Fe133      Fe  0.14993684  0.42178596  0.27254181     1.65800
Fe134      Fe  0.14662611  0.31470337  0.32302512     1.73200
Fe135      Fe  0.19886867  0.33937014  0.26080513     1.54400
O136        O  0.18726334  0.37232917  0.19922838    -0.81800
O137        O  0.18050632  0.30925224  0.36613281    -0.80100
O138        O  0.14686454  0.40644825  0.20611609    -0.84300
O139        O  0.18725615  0.45608028  0.26816123    -0.79100
O140        O  0.18183164  0.27611492  0.23479559    -0.80900
O141        O  0.13433742  0.37111402  0.36332258    -0.83700
C142        C  0.21210687  0.44521548  0.27744300     0.97100
C143        C  0.16521367  0.39167523  0.18246743     1.04500
O144        O  0.16531556  0.35831834  0.28531026    -1.12600
O145        O  0.11087281  0.31835943  0.28220935    -0.75100
O146        O  0.10988672  0.39834191  0.27497720    -0.78600
O147        O  0.21945402  0.40149754  0.28405237    -0.79200
C148        C  0.09780871  0.35748271  0.27446072     0.96000
O149        O  0.15292984  0.43832240  0.33885175    -0.77200
O150        O  0.15801815  0.25177481  0.29007359    -0.82400
C151        C  0.20425948  0.29746583  0.35792939     0.98600
C152        C  0.17091554  0.24283192  0.25605324     1.04600
O153        O  0.21332431  0.30291920  0.31967992    -0.78000
C154        C  0.14264498  0.41468781  0.36924513     1.02900
Fe155      Fe  0.34398103  0.01104649  0.71947285     1.65800
Fe156      Fe  0.34424907  0.11878754  0.66833712     1.73200
Fe157      Fe  0.29118858  0.08800859  0.72761591     1.54400
O158        O  0.27396607  0.02192180  0.70960428    -0.81800
O159        O  0.33225008  0.18076318  0.70156419    -0.80100
O160        O  0.30840243  0.97174668  0.72369750    -0.84300
O161        O  0.34516984  0.02704937  0.78588972    -0.79100
O162        O  0.27494381  0.11550375  0.66529865    -0.80900
O163        O  0.37969088  0.11777731  0.70920229    -0.83700
C164        C  0.32679493  0.04314621  0.80903924     0.97100
C165        C  0.28313364  0.97955992  0.71670953     1.04500
O166        O  0.32623854  0.07298329  0.70536490    -1.12600
O167        O  0.35717368  0.06358296  0.62685903    -0.75100
O168        O  0.34257207  0.99360088  0.65284078    -0.78600
O169        O  0.30476707  0.06231250  0.79165454    -0.79200
C170        C  0.35044072  0.01908396  0.62128498     0.96000
O171        O  0.38332044  0.03847787  0.71905299    -0.77200
O172        O  0.31076067  0.12348287  0.62552251    -0.82400
C173        C  0.31634631  0.18926863  0.73170570     0.98600
C174        C  0.28549414  0.12502411  0.62889480     1.04600
O175        O  0.30305811  0.15608665  0.74899416    -0.78000
C176        C  0.39380378  0.08066640  0.71967133     1.02900
C177        C  0.23371393  0.19036978  0.54943819    -0.27700
C178        C  0.24700232  0.18840403  0.50982970     0.01900
C179        C  0.27086482  0.16118237  0.50903979     0.30000
C180        C  0.28122365  0.13681270  0.54722206    -0.19500
C181        C  0.26911074  0.14078042  0.58780704    -0.28900
C182        C  0.24475196  0.16705221  0.58851380     0.44000
C183        C  0.23708136  0.21689542  0.47001854     0.05200
O184        O  0.28565448  0.16213370  0.47241190    -0.57400
H185        H  0.30002682  0.11713055  0.54559056     0.18100
O186        O  0.23239945  0.17232008  0.62738744    -0.64100
H187        H  0.21528866  0.21138113  0.55042619     0.16600
C188        C  0.23252300  0.19465512  0.42756631     0.28800
C189        C  0.22472148  0.22269972  0.38992779    -0.25000
C190        C  0.22040558  0.27265288  0.39417708    -0.24300
C191        C  0.22507147  0.29497227  0.43641277     0.40300
C192        C  0.23353483  0.26718187  0.47396088    -0.26800
O193        O  0.23476368  0.14533002  0.42274567    -0.58700
H194        H  0.22027500  0.20489195  0.35786285     0.15900
O195        O  0.22032296  0.34360847  0.44153151    -0.60100
H196        H  0.23719323  0.28484391  0.50626717     0.14400
H197        H  0.24053427  0.20197607  0.64186301     0.46200
H198        H  0.21758904  0.13177644  0.43211596     0.41600
H199        H  0.23653185  0.36006817  0.43146708     0.45100
H200        H  0.28547332  0.12836919  0.46081681     0.36500
C201        C  0.30124513  0.60954549  0.22690169    -0.27700
C202        C  0.28898142  0.60478961  0.26719036     0.01900
C203        C  0.29203731  0.64272562  0.29877255     0.30000
C204        C  0.30482113  0.68615385  0.28820784    -0.19500
C205        C  0.31460190  0.69312712  0.24598722    -0.28900
C206        C  0.31391400  0.65327804  0.21609989     0.44000
C207        C  0.27003047  0.56356718  0.27335017     0.05200
O208        O  0.28189453  0.63805107  0.33966587    -0.57400
H209        H  0.30552092  0.71567998  0.31224734     0.18100
O210        O  0.32368181  0.65769576  0.17494186    -0.64100
H211        H  0.29931918  0.58051775  0.20236259     0.16600
C212        C  0.24209880  0.57242649  0.27499954     0.28800
C213        C  0.22389537  0.53381265  0.27791050    -0.25000
C214        C  0.23277528  0.48527191  0.27902275    -0.24300
C215        C  0.26096690  0.47646237  0.27867584     0.40300
C216        C  0.27922236  0.51535826  0.27529881    -0.26800
O217        O  0.23217875  0.61887557  0.27238894    -0.58700
H218        H  0.20252975  0.54211341  0.27831741     0.15900
O219        O  0.27087692  0.43002010  0.27977183    -0.60100
H220        H  0.30061207  0.50782815  0.27391906     0.14400
H221        H  0.30795618  0.66829469  0.15452796     0.46200
H222        H  0.22925898  0.62590567  0.23993317     0.41600
H223        H  0.27559500  0.42307455  0.31192237     0.45100
H224        H  0.26589449  0.65976562  0.33871006     0.36500
C225        C  0.24935135  0.07520171  0.20842337    -0.27700
C226        C  0.22319529  0.06431407  0.22015535     0.01900
C227        C  0.21616371  0.01570293  0.22722245     0.30000
C228        C  0.23534605  0.97885136  0.22327940    -0.19500
C229        C  0.26197184  0.98978959  0.21348331    -0.28900
C230        C  0.26877203  0.03855848  0.20554880     0.44000
C231        C  0.20425682  0.10459577  0.22770974     0.05200
O232        O  0.19049841  0.00392912  0.23747287    -0.57400
H233        H  0.22957443  0.94171140  0.22943623     0.18100
O234        O  0.29416019  0.05075146  0.19424188    -0.64100
H235        H  0.25498986  0.11253868  0.20279509     0.16600
C236        C  0.19775797  0.11608182  0.27123317     0.28800
C237        C  0.18389333  0.15915839  0.27914252    -0.25000
C238        C  0.17680966  0.19185187  0.24424190    -0.24300
C239        C  0.18150695  0.17846310  0.20016015     0.40300
C240        C  0.19510181  0.13501909  0.19216058    -0.26800
O241        O  0.20736425  0.08804552  0.30684127    -0.58700
H242        H  0.18080347  0.16891069  0.31333019     0.15900
O243        O  0.17345708  0.20820423  0.16491004    -0.60100
H244        H  0.19964500  0.12618642  0.15840698     0.14400
H245        H  0.30395280  0.06321190  0.22224696     0.46200
H246        H  0.19121817  0.07123534  0.31670868     0.41600
H247        H  0.19028932  0.22388176  0.15641243     0.45100
H248        H  0.19248217  0.99427525  0.26940404     0.36500
C249        C  0.34556161  0.00169521  0.49494502    -0.27700
C250        C  0.34522451  0.95101511  0.49137696     0.01900
C251        C  0.34869098  0.92277606  0.53024334     0.30000
C252        C  0.35139760  0.94535099  0.57233428    -0.19500
C253        C  0.35098668  0.99630216  0.57634386    -0.28900
C254        C  0.34864948  0.02445247  0.53691564     0.44000
C255        C  0.34087907  0.92826318  0.44673372     0.05200
O256        O  0.34947238  0.87312912  0.52738540    -0.57400
H257        H  0.35343782  0.92285503  0.60195106     0.18100
O258        O  0.34782482  0.07413415  0.53890305    -0.64100
H259        H  0.34301225  0.02369738  0.46501937     0.16600
C260        C  0.31454805  0.91789261  0.42745913     0.28800
C261        C  0.31054070  0.90257540  0.38274871    -0.25000
C262        C  0.33268176  0.89719534  0.35692102    -0.24300
C263        C  0.35925178  0.90396728  0.37768627     0.40300
C264        C  0.36311740  0.91970135  0.42218084    -0.26800
O265        O  0.29253770  0.92504543  0.45140053    -0.58700
H266        H  0.29002076  0.89731485  0.36771437     0.15900
O267        O  0.38158595  0.89534712  0.35475855    -0.60100
H268        H  0.38350534  0.92656575  0.43717595     0.14400
H269        H  0.36655972  0.08494932  0.53483233     0.46200
H270        H  0.28906579  0.89307216  0.46482499     0.41600
H271        H  0.38843248  0.92783595  0.34712110     0.45100
H272        H  0.33023131  0.86260011  0.52473577     0.36500
C273        C  0.35983409  0.94257816  0.99892933    -0.27700
C274        C  0.34708656  0.98789429  0.99334421     0.01900
C275        C  0.33807335  0.01175203  0.03065456     0.30000
C276        C  0.34048324  0.98914743  0.07233968    -0.19500
C277        C  0.35190864  0.94244392  0.07782069    -0.28900
C278        C  0.36239244  0.91985821  0.04074596     0.44000
C279        C  0.34213679  0.00870094  0.94807123     0.05200
O280        O  0.32629535  0.05672842  0.02652092    -0.57400
H281        H  0.33257547  0.00792340  0.10017588     0.18100
O282        O  0.37501607  0.87562472  0.04477653    -0.64100
H283        H  0.36703917  0.92394614  0.97041592     0.16600
C284        C  0.36367580  0.01624491  0.92146770     0.28800
C285        C  0.35832368  0.03070412  0.87705370    -0.25000
C286        C  0.33152337  0.03712253  0.85809563    -0.24300
C287        C  0.31001134  0.03230008  0.88558271     0.40300
C288        C  0.31544122  0.01802582  0.93024767    -0.26800
O289        O  0.39002489  0.00952430  0.93868655    -0.58700
H290        H  0.37527272  0.03524169  0.85691873     0.15900
O291        O  0.28357464  0.03768228  0.86840426    -0.60100
H292        H  0.29865536  0.01211603  0.95046075     0.14400
H293        H  0.36123510  0.85169429  0.03273724     0.46200
H294        H  0.39578951  0.97852608  0.92557674     0.41600
H295        H  0.27830945  0.07067276  0.87766739     0.45100
H296        H  0.34165363  0.07996129  0.02736687     0.36500
C297        C  0.26672600  0.77425134  0.00666377    -0.27700
C298        C  0.24600737  0.74021983  0.01073844     0.01900
C299        C  0.23612591  0.73364719  0.05313147     0.30000
C300        C  0.24837397  0.75806058  0.09086904    -0.19500
C301        C  0.27018409  0.78983930  0.08689171    -0.28900
C302        C  0.27830340  0.79967644  0.04385144     0.44000
C303        C  0.23591082  0.71073434  0.97088959     0.05200
O304        O  0.21506039  0.70241880  0.05834495    -0.57400
H305        H  0.24171815  0.75019763  0.12351165     0.18100
O306        O  0.29859008  0.83242468  0.03796614    -0.64100
H307        H  0.27481966  0.77999076  0.97473046     0.16600
C308        C  0.23018132  0.73236163  0.92847889     0.28800
C309        C  0.22168807  0.70378760  0.89120490    -0.25000
C310        C  0.21757667  0.65384493  0.89559301    -0.24300
C311        C  0.22306673  0.63203233  0.93769188     0.40300
C312        C  0.23287661  0.66018211  0.97468128    -0.26800
O313        O  0.23159659  0.78170139  0.92337113    -0.58700
H314        H  0.21633624  0.72131326  0.85936937     0.15900
O315        O  0.21867894  0.58329249  0.94291759    -0.60100
H316        H  0.23774407  0.64245390  0.00651753     0.14400
H317        H  0.28944889  0.86441009  0.03521265     0.46200
H318        H  0.21359789  0.79405883  0.93018033     0.41600
H319        H  0.20184642  0.58096919  0.95841743     0.45100
H320        H  0.19844137  0.72239500  0.05312250     0.36500
C321        C  0.13055149  0.42016599  0.06853466    -0.27700
C322        C  0.15284484  0.43105670  0.04492636     0.01900
C323        C  0.17929929  0.42372629  0.06477105     0.30000
C324        C  0.18324874  0.40808123  0.10913167    -0.19500
C325        C  0.16091178  0.39983215  0.13389047    -0.28900
C326        C  0.13437458  0.40437263  0.11267334     0.44000
C327        C  0.14813402  0.45291108  0.00054684     0.05200
O328        O  0.20132954  0.43386226  0.04170506    -0.57400
H329        H  0.20374759  0.40471956  0.12476077     0.18100
O330        O  0.11198961  0.39503973  0.13517956    -0.64100
H331        H  0.11012910  0.42532109  0.05306203     0.16600
C332        C  0.14230111  0.42385911  0.96247100     0.28800
C333        C  0.13813609  0.44551924  0.92047239    -0.25000
C334        C  0.13913192  0.49624768  0.91614344    -0.24300
C335        C  0.14410828  0.52534985  0.95477278     0.40300
C336        C  0.14879640  0.50347633  0.99664040    -0.26800
O337        O  0.14151259  0.37429109  0.96594227    -0.58700
H338        H  0.13445552  0.42255221  0.89115695     0.15900
O339        O  0.14618415  0.57484070  0.95172419    -0.60100
H340        H  0.15317784  0.52595456  0.02613026     0.14400
H341        H  0.10928829  0.35943539  0.13287483     0.46200
H342        H  0.12202562  0.36608308  0.96648940     0.41600
H343        H  0.12840129  0.58753780  0.95923495     0.45100
H344        H  0.20557288  0.40292618  0.02685446     0.36500
C345        C  0.14619729  0.50867926  0.46225470    -0.27700
C346        C  0.14334352  0.47922522  0.49933399     0.01900
C347        C  0.13848066  0.42928473  0.49342868     0.30000
C348        C  0.13717087  0.40903668  0.45061919    -0.19500
C349        C  0.14091290  0.43806681  0.41326677    -0.28900
C350        C  0.14486815  0.48859090  0.41933720     0.44000
C351        C  0.14658241  0.50023323  0.54447587     0.05200
O352        O  0.13580966  0.39977837  0.52949505    -0.57400
H353        H  0.13422265  0.37021840  0.44696613     0.18100
O354        O  0.14807622  0.51858820  0.38382884    -0.64100
H355        H  0.14976760  0.54726933  0.46671011     0.16600
C356        C  0.17214146  0.51600460  0.56313200     0.28800
C357        C  0.17561479  0.52990606  0.60810310    -0.25000
C358        C  0.15368181  0.52860432  0.63476524    -0.24300
C359        C  0.12760733  0.51588871  0.61475203     0.40300
C360        C  0.12436390  0.50130071  0.57007588    -0.26800
O361        O  0.19419085  0.51469155  0.53850715    -0.58700
H362        H  0.19574106  0.53969399  0.62249679     0.15900
O363        O  0.10526635  0.51590018  0.63876786    -0.60100
H364        H  0.10454947  0.48971841  0.55557715     0.14400
H365        H  0.12964653  0.53104626  0.37458048     0.46200
H366        H  0.19514947  0.54749223  0.52529240     0.41600
H367        H  0.09793943  0.54933393  0.63607039     0.45100
H368        H  0.15460213  0.39083563  0.54063700     0.36500
C369        C  0.25372531  0.85215798  0.72682734    -0.27700
C370        C  0.22587316  0.86180229  0.72601128     0.01900
C371        C  0.21682137  0.90995671  0.72141362     0.30000
C372        C  0.23554440  0.94766387  0.71749529    -0.19500
C373        C  0.26361863  0.93830040  0.71842449    -0.28900
C374        C  0.27253890  0.88971755  0.72351294     0.44000
C375        C  0.20673422  0.82096272  0.73041138     0.05200
O376        O  0.18972335  0.92054978  0.72079514    -0.57400
H377        H  0.22799796  0.98446336  0.71427598     0.18100
O378        O  0.29956368  0.87823456  0.72509987    -0.64100
H379        H  0.26098791  0.81521235  0.73076468     0.16600
C380        C  0.20436253  0.78372606  0.69818931     0.28800
C381        C  0.18943542  0.74186746  0.70574804    -0.25000
C382        C  0.17731154  0.73539055  0.74607880    -0.24300
C383        C  0.17825584  0.77427793  0.77708735     0.40300
C384        C  0.19280453  0.81667467  0.76897494    -0.26800
O385        O  0.21722318  0.78743804  0.65966265    -0.58700
H386        H  0.18890941  0.71301850  0.68104359     0.15900
O387        O  0.16724640  0.76972558  0.81721194    -0.60100
H388        H  0.19457714  0.84507101  0.79415154     0.14400
H389        H  0.30568584  0.87590877  0.75740759     0.46200
H390        H  0.23390951  0.76762995  0.66492644     0.41600
H391        H  0.14837478  0.78169459  0.81159234     0.45100
H392        H  0.18253338  0.91726863  0.68901661     0.36500
C393        C  0.23710144  0.35591848  0.77841432    -0.27700
C394        C  0.26385369  0.36691730  0.76984689     0.01900
C395        C  0.27139067  0.41574838  0.76550150     0.30000
C396        C  0.25224315  0.45270197  0.76941733    -0.19500
C397        C  0.22523333  0.44177410  0.77711932    -0.28900
C398        C  0.21783768  0.39266114  0.78174918     0.44000
C399        C  0.28305274  0.32660702  0.76347465     0.05200
O400        O  0.29731666  0.42764398  0.75682206    -0.57400
H401        H  0.25843507  0.48999523  0.76521803     0.18100
O402        O  0.19194431  0.38006940  0.79012043    -0.64100
H403        H  0.23090980  0.31843774  0.78143970     0.16600
C404        C  0.28872825  0.29180621  0.79715434     0.28800
C405        C  0.30242597  0.24901765  0.78775557    -0.25000
C406        C  0.31046208  0.23988569  0.74473308    -0.24300
C407        C  0.30665978  0.27653171  0.71202864     0.40300
C408        C  0.29314578  0.31958074  0.72164085    -0.26800
O409        O  0.28027755  0.29883420  0.83903464    -0.58700
H410        H  0.30523377  0.22149972  0.81342904     0.12700
O411        O  0.31386307  0.26897891  0.66943140    -0.60100
H412        H  0.28885534  0.34599859  0.69533068     0.14400
H413        H  0.18289299  0.36984399  0.76075450     0.46200
H414        H  0.26417043  0.27761537  0.84034251     0.41600
H415        H  0.29772870  0.25389663  0.65286771     0.45100
H416        H  0.30673469  0.43651073  0.78628581     0.36500
C417        C  0.96784872  0.38737986  0.21443428    -0.27700
C418        C  0.97991211  0.35242019  0.24372968     0.01900
C419        C  0.96301136  0.31974180  0.26452682     0.30000
C420        C  0.93463534  0.32219409  0.25540220    -0.19500
C421        C  0.92274927  0.35762399  0.22645175    -0.28900
C422        C  0.93966255  0.39020092  0.20583186     0.44000
C423        C  0.01005140  0.35223067  0.25296214     0.05200
O424        O  0.97393221  0.28738522  0.29574365    -0.57400
H425        H  0.92188266  0.29715065  0.27181002     0.18100
O426        O  0.92884686  0.42465615  0.17660004    -0.64100
H427        H  0.98041724  0.41264941  0.19791244     0.16600
C428        C  0.02568925  0.31011953  0.24783821     0.28800
C429        C  0.05412274  0.31214008  0.25498815    -0.25000
C430        C  0.06761701  0.35606103  0.26638817    -0.24300
C431        C  0.05182191  0.39813106  0.27152225     0.40300
C432        C  0.02349977  0.39590957  0.26474796    -0.26800
O433        O  0.01351210  0.26703516  0.23474376    -0.58700
H434        H  0.06565520  0.27929837  0.25085689     0.15900
O435        O  0.06373008  0.44178490  0.28353314    -0.60100
H436        H  0.01190780  0.42869709  0.26891304     0.14400
H437        H  0.92525783  0.40753663  0.14752737     0.46200
H438        H  0.01044041  0.26888314  0.20168948     0.41600
H439        H  0.06541494  0.44205282  0.31672298     0.45100
H440        H  0.97016036  0.25476195  0.28253246     0.36500
C441        C  0.46609855  0.13046121  0.72927159    -0.27700
C442        C  0.48052953  0.09122059  0.74892528     0.01900
C443        C  0.46633190  0.04994349  0.76139470     0.30000
C444        C  0.43807610  0.04763531  0.75289207    -0.19500
C445        C  0.42348097  0.08608835  0.73163909    -0.28900
C446        C  0.43783050  0.12810176  0.72030011     0.44000
C447        C  0.51051747  0.09234179  0.75443249     0.05200
O448        O  0.47996640  0.01205329  0.78264144    -0.57400
H449        H  0.42762770  0.01529732  0.76256665     0.18100
O450        O  0.42462943  0.16660233  0.69939593    -0.64100
H451        H  0.47688777  0.16242328  0.71957798     0.16600
C452        C  0.52557253  0.06169313  0.72845183     0.28800
C453        C  0.55383655  0.05979905  0.73638146    -0.25000
C454        C  0.56757104  0.08859293  0.76987733    -0.24300
C455        C  0.55253665  0.12115278  0.79440660     0.40300
C456        C  0.52415629  0.12265033  0.78670848    -0.26800
O457        O  0.51276011  0.03409683  0.69471779    -0.58700
H458        H  0.56504755  0.03538363  0.71645410     0.15900
O459        O  0.56515203  0.14935643  0.82782842    -0.60100
H460        H  0.51271330  0.14650094  0.80679181     0.14400
H461        H  0.42541032  0.16050544  0.66693529     0.46200
H462        H  0.51365354  0.00025805  0.70580494     0.41600
H463        H  0.56815902  0.18113442  0.81369426     0.45100
H464        H  0.47932116  0.98529519  0.76037377     0.36500
C465        C  0.76979031  0.28261306  0.99783064    -0.27700
C466        C  0.74879950  0.24878718  0.99984033     0.01900
C467        C  0.73694842  0.24278684  0.04063824     0.30000
C468        C  0.74812520  0.26636703  0.07956117    -0.19500
C469        C  0.77081314  0.29671289  0.07813391    -0.28900
C470        C  0.78042319  0.30711906  0.03621501     0.44000
C471        C  0.74111781  0.21731161  0.96036798     0.05200
O472        O  0.71521420  0.21232645  0.04322765    -0.57400
H473        H  0.74009672  0.25857767  0.11120035     0.18100
O474        O  0.80141631  0.33907459  0.03276292    -0.64100
H475        H  0.77905485  0.28824903  0.96689277     0.16600
C476        C  0.73551620  0.23682836  0.91714445     0.28800
C477        C  0.72790871  0.20603890  0.88087983    -0.25000
C478        C  0.72529161  0.15593497  0.88714602    -0.24300
C479        C  0.73227864  0.13616922  0.92970742     0.40300
C480        C  0.74034836  0.16670624  0.96581973    -0.26800
O481        O  0.73510078  0.28610664  0.91076071    -0.58700
H482        H  0.72188923  0.22181653  0.84852186     0.15900
O483        O  0.72986078  0.08728922  0.93677028    -0.60100
H484        H  0.74545610  0.15085049  0.99845303     0.14400
H485        H  0.79289395  0.37163617  0.03125262     0.46200
H486        H  0.75069864  0.29317197  0.89320721     0.41600
H487        H  0.74744338  0.07326310  0.92976674     0.45100
H488        H  0.69908737  0.23198101  0.03302372     0.36500
C489        C  0.46642030  0.82442420  0.25880995    -0.27700
C490        C  0.48138772  0.85778536  0.23557348     0.01900
C491        C  0.46764885  0.89008418  0.20532878     0.30000
C492        C  0.43932661  0.88956097  0.19944524    -0.19500
C493        C  0.42430496  0.85674676  0.22303233    -0.28900
C494        C  0.43799431  0.82377731  0.25270760     0.44000
C495        C  0.51133051  0.85893756  0.24304210     0.05200
O496        O  0.48184364  0.92079811  0.18002642    -0.57400
H497        H  0.42903976  0.91449151  0.17581690     0.18100
O498        O  0.42382037  0.79159528  0.27649463    -0.64100
H499        H  0.47681094  0.79938223  0.28218513     0.16600
C500        C  0.52497221  0.90135965  0.25874922     0.28800
C501        C  0.55330523  0.90240153  0.26407204    -0.25000
C502        C  0.56856259  0.86110873  0.25490945    -0.24300
C503        C  0.55480374  0.81843942  0.23965254     0.40300
C504        C  0.52641389  0.81761119  0.23393736    -0.26800
O505        O  0.51078242  0.94180658  0.26965997    -0.58700
H506        H  0.56333097  0.93530722  0.27666312     0.15900
O507        O  0.56882616  0.77733186  0.23016857    -0.60100
H508        H  0.51611991  0.78475312  0.22186922     0.14400
H509        H  0.41845178  0.81025509  0.30262666     0.46200
H510        H  0.50481999  0.93514246  0.29973256     0.41600
H511        H  0.57362404  0.78162045  0.19903254     0.45100
H512        H  0.47875046  0.95382944  0.19173841     0.36500
C513        C  0.69131938  0.61392944  0.25450871    -0.27700
C514        C  0.70273093  0.61012812  0.21339743     0.01900
C515        C  0.69820265  0.64742870  0.18180866     0.30000
C516        C  0.68513247  0.69008588  0.19351312    -0.19500
C517        C  0.67648759  0.69618873  0.23659431    -0.28900
C518        C  0.67815127  0.65655186  0.26618334     0.44000
C519        C  0.72199563  0.57016977  0.20644549     0.05200
O520        O  0.70725209  0.64293973  0.14003148    -0.57400
H521        H  0.68359852  0.71991860  0.17001039     0.18100
O522        O  0.67012358  0.66115218  0.30856476    -0.64100
H523        H  0.69445911  0.58526221  0.27901434     0.16600
C524        C  0.74949659  0.58022776  0.20119909     0.28800
C525        C  0.76819354  0.54228402  0.19970331    -0.25000
C526        C  0.76002103  0.49379285  0.20364776    -0.24300
C527        C  0.73232080  0.48381349  0.20811319     0.40300
C528        C  0.71365789  0.52183029  0.20956822    -0.26800
O529        O  0.75855845  0.62716659  0.19927960    -0.58700
H530        H  0.78927472  0.55094784  0.19633175     0.15900
O531        O  0.72333576  0.43715771  0.21271721    -0.60100
H532        H  0.69267285  0.51359573  0.21417555     0.14400
H533        H  0.65084861  0.65078907  0.30604258     0.46200
H534        H  0.76191097  0.63785366  0.23088113     0.41600
H535        H  0.72559585  0.43070842  0.24533161     0.45100
H536        H  0.72195954  0.66727409  0.13890624     0.36500
C537        C  0.74395777  0.07817647  0.27917932    -0.27700
C538        C  0.77071301  0.06792020  0.27010023     0.01900
C539        C  0.77867930  0.01925687  0.26591105     0.30000
C540        C  0.75963434  0.98186145  0.26904747    -0.19500
C541        C  0.73241967  0.99229750  0.27577289    -0.28900
C542        C  0.72493755  0.04101792  0.28213813     0.44000
C543        C  0.78918405  0.10907129  0.26275309     0.05200
O544        O  0.80508405  0.00800808  0.25959807    -0.57400
H545        H  0.76603790  0.94468641  0.26477396     0.18100
O546        O  0.69898689  0.05293669  0.29064961    -0.64100
H547        H  0.73754480  0.11546333  0.28277631     0.16600
C548        C  0.79950417  0.11609207  0.22091492     0.28800
C549        C  0.81154482  0.16048607  0.21121035    -0.25000
C550        C  0.81282837  0.19880985  0.24235426    -0.24300
C551        C  0.80433646  0.19035499  0.28536593     0.40300
C552        C  0.79284964  0.14568015  0.29531923    -0.26800
O553        O  0.79590637  0.08145507  0.18795982    -0.58700
H554        H  0.81757752  0.16634652  0.17780894     0.15900
O555        O  0.80619478  0.22627293  0.31733468    -0.60100
H556        H  0.78521504  0.14069310  0.32774670     0.14400
H557        H  0.69904655  0.05233114  0.32370429     0.46200
H558        H  0.77760994  0.08764211  0.17281153     0.41600
H559        H  0.78742652  0.23848677  0.31865114     0.45100
H560        H  0.80463926  0.99458033  0.22882002     0.36500
C561        C  0.63202120  0.90167269  0.06321308    -0.27700
C562        C  0.65373438  0.91320206  0.03832768     0.01900
C563        C  0.68051193  0.90871567  0.05801272     0.30000
C564        C  0.68522788  0.89668829  0.10332587    -0.19500
C565        C  0.66340612  0.88920752  0.12929349    -0.28900
C566        C  0.63667157  0.88946536  0.10837588     0.44000
C567        C  0.64825548  0.93578624  0.99400759     0.05200
O568        O  0.70204870  0.92051856  0.03436246    -0.57400
H569        H  0.70585836  0.89658245  0.11879528     0.18100
O570        O  0.61495527  0.87856314  0.13205084    -0.64100
H571        H  0.61136249  0.90417913  0.04806320     0.16600
C572        C  0.65646304  0.91367361  0.95526833     0.28800
C573        C  0.65377409  0.93859724  0.91465098    -0.25000
C574        C  0.64294173  0.98591844  0.91188235    -0.24300
C575        C  0.63375323  0.00713704  0.95072152     0.40300
C576        C  0.63624167  0.98182850  0.99119229    -0.26800
O577        O  0.66776285  0.86823746  0.95702313    -0.58700
H578        H  0.66095478  0.92116512  0.88551822     0.15900
O579        O  0.62257722  0.05267041  0.94980819    -0.60100
H580        H  0.62972597  0.99903491  0.02096569     0.14400
H581        H  0.60625359  0.91012333  0.13773173     0.46200
H582        H  0.65220753  0.84551847  0.95234803     0.41600
H583        H  0.63766577  0.07475950  0.96038338     0.45100
H584        H  0.70954074  0.88903336  0.02519096     0.36500
C585        C  0.64748574  0.01104754  0.45764963    -0.27700
C586        C  0.64214567  0.98190129  0.49388744     0.01900
C587        C  0.63432394  0.93329073  0.48644717     0.30000
C588        C  0.63288653  0.91384605  0.44321900    -0.19500
C589        C  0.63934113  0.94228733  0.40681521    -0.28900
C590        C  0.64589509  0.99186958  0.41431049     0.44000
C591        C  0.64601665  0.00167064  0.53970434     0.05200
O592        O  0.62897643  0.90403738  0.52148901    -0.57400
H593        H  0.62770754  0.87585108  0.43860477     0.18100
O594        O  0.65160490  0.02172840  0.37990438    -0.64100
H595        H  0.65326762  0.04868755  0.46312220     0.16600
C596        C  0.67202200  0.01465042  0.55871319     0.28800
C597        C  0.67572426  0.02953944  0.60345117    -0.25000
C598        C  0.65371751  0.03122769  0.62999129    -0.24300
C599        C  0.62743866  0.01984529  0.61011157     0.40300
C600        C  0.62382906  0.00522886  0.56531436    -0.26800
O601        O  0.69407751  0.01125254  0.53422960    -0.58700
H602        H  0.69607041  0.03786145  0.61779980     0.15900
O603        O  0.60509314  0.02308343  0.63397645    -0.60100
H604        H  0.60368323  0.99581627  0.55068674     0.14400
H605        H  0.63389818  0.03576666  0.36853130     0.46200
H606        H  0.70142900  0.97821487  0.54014886     0.41600
H607        H  0.60088557  0.98924028  0.64213167     0.45100
H608        H  0.64674161  0.88989643  0.53244492     0.36500
C609        C  0.96362086  0.62027070  0.71027888    -0.27700
C610        C  0.97687341  0.58400445  0.73666174     0.01900
C611        C  0.96125517  0.54894757  0.75684204     0.30000
C612        C  0.93300033  0.54899350  0.74857822    -0.19500
C613        C  0.91973457  0.58389901  0.72061876    -0.28900
C614        C  0.93528634  0.62050536  0.70222075     0.44000
C615        C  0.00695144  0.58315758  0.74319928     0.05200
O616        O  0.97341565  0.51571534  0.78609029    -0.57400
H617        H  0.92142576  0.52135398  0.76409639     0.18100
O618        O  0.92315556  0.65596892  0.67550183    -0.64100
H619        H  0.97533382  0.64787400  0.69499662     0.16600
C620        C  0.02156893  0.54076438  0.73477462     0.28800
C621        C  0.04972320  0.53972439  0.74415906    -0.25000
C622        C  0.06406340  0.58087919  0.76122578    -0.24300
C623        C  0.04949686  0.62409876  0.76745930     0.40300
C624        C  0.02122471  0.62493823  0.75835057    -0.26800
O625        O  0.00855192  0.49997996  0.71745875    -0.58700
H626        H  0.06032906  0.50628329  0.73818244     0.15900
O627        O  0.06250626  0.66552326  0.78319277    -0.60100
H628        H  0.01032114  0.65804625  0.76439685     0.14400
H629        H  0.92325728  0.64341100  0.64449526     0.46200
H630        H  0.00545242  0.50584288  0.68482911     0.41600
H631        H  0.06049236  0.66605085  0.81578197     0.45100
H632        H  0.96962167  0.48347164  0.77207484     0.36500
C633        C  0.75258660  0.66529028  0.51433651    -0.27700
C634        C  0.74661176  0.71438818  0.52140916     0.01900
C635        C  0.74785029  0.73227766  0.56578566     0.30000
C636        C  0.75642062  0.70195986  0.60161134    -0.19500
C637        C  0.76464225  0.65422821  0.59384326    -0.28900
C638        C  0.76219861  0.63568036  0.54992475     0.44000
C639        C  0.73880989  0.74587225  0.48220514     0.05200
O640        O  0.74214564  0.77989647  0.57448111    -0.57400
H641        H  0.75884004  0.71707602  0.63514866     0.18100
O642        O  0.76981990  0.58890855  0.54144702    -0.64100
H643        H  0.75055234  0.65004209  0.48088993     0.16600
C644        C  0.75301604  0.74439861  0.44329991     0.28800
C645        C  0.74272068  0.76873385  0.40440253    -0.25000
C646        C  0.71852812  0.79510195  0.40400040    -0.24300
C647        C  0.70627672  0.80118859  0.44449075     0.40300
C648        C  0.71595560  0.77572195  0.48259428    -0.26800
O649        O  0.77691662  0.71920011  0.44307111    -0.58700
H650        H  0.75280065  0.76459453  0.37400685     0.15900
O651        O  0.68375658  0.82984949  0.44654739    -0.60100
H652        H  0.70471541  0.77778266  0.51190384     0.14400
H653        H  0.78781854  0.59162646  0.52947672     0.46200
H654        H  0.77302480  0.69164518  0.42209997     0.41600
H655        H  0.69091843  0.86295188  0.45325858     0.45100
H656        H  0.75924344  0.79776751  0.57112127     0.36500
C657        C  0.80884798  0.42059829  0.42278045    -0.27700
C658        C  0.83538254  0.42207344  0.44347905     0.01900
C659        C  0.85716570  0.40869109  0.41926194     0.30000
C660        C  0.85247694  0.39691802  0.37393002    -0.19500
C661        C  0.82610337  0.39819483  0.35216354    -0.28900
C662        C  0.80404384  0.40820026  0.37742142     0.44000
C663        C  0.84050604  0.44415778  0.48812523     0.05200
O664        O  0.88317903  0.40867307  0.43931703    -0.57400
H665        H  0.86968175  0.38841932  0.35534201     0.18100
O666        O  0.77805323  0.40995165  0.35743576    -0.64100
H667        H  0.79198013  0.43123228  0.44133669     0.16600
C668        C  0.84470391  0.49443863  0.49207376     0.28800
C669        C  0.84769634  0.51620217  0.53428630    -0.25000
C670        C  0.84671778  0.48828640  0.57319467    -0.24300
C671        C  0.84425560  0.43726378  0.56908160     0.40300
C672        C  0.84092300  0.41562437  0.52662168    -0.26800
O673        O  0.84474470  0.52286555  0.45466692    -0.58700
H674        H  0.84970948  0.55530975  0.53636477     0.15900
O675        O  0.84449542  0.40827836  0.60615331    -0.60100
H676        H  0.83827399  0.37667708  0.52369927     0.14400
H677        H  0.77034770  0.37733373  0.36216416     0.46200
H678        H  0.86382962  0.52298567  0.44702451     0.41600
H679        H  0.86391875  0.40115596  0.61450655     0.45100
H680        H  0.89072873  0.44092221  0.43264813     0.36500
C681        C  0.85603204  0.44084100  0.99473377    -0.27700
C682        C  0.84822180  0.48964091  0.99046009     0.01900
C683        C  0.84323530  0.51628322  0.02882948     0.30000
C684        C  0.84531745  0.49369918  0.07059230    -0.19500
C685        C  0.85234729  0.44427830  0.07500476    -0.28900
C686        C  0.85826301  0.41815339  0.03647977     0.44000
C687        C  0.84392145  0.51111744  0.94536731     0.05200
O688        O  0.83572827  0.56412182  0.02571186    -0.57400
H689        H  0.84073899  0.51488048  0.09946044     0.18100
O690        O  0.86479998  0.36983521  0.03862064    -0.64100
H691        H  0.85955590  0.41970388  0.96528159     0.16600
C692        C  0.86462383  0.51001096  0.91629706     0.28800
C693        C  0.85906406  0.52365977  0.87169883    -0.25000
C694        C  0.83279293  0.53796457  0.85501433    -0.24300
C695        C  0.81252539  0.54223732  0.88506418     0.40300
C696        C  0.81821858  0.52885282  0.92989743    -0.26800
O697        O  0.89035685  0.49555547  0.93130073    -0.58700
H698        H  0.87529483  0.52141353  0.84980215     0.15900
O699        O  0.78688131  0.55769988  0.87085404    -0.60100
H700        H  0.80212353  0.53008196  0.95211522     0.14400
H701        H  0.88490448  0.36892653  0.04175151     0.46200
H702        H  0.89250387  0.46272662  0.91842472     0.41600
H703        H  0.77654070  0.52776353  0.86220872     0.45100
H704        H  0.85290501  0.58270774  0.03068209     0.36500
C705        C  0.78849623  0.79581123  0.78414409    -0.27700
C706        C  0.78274967  0.82753779  0.74833926     0.01900
C707        C  0.79287022  0.81758388  0.70696142     0.30000
C708        C  0.80704319  0.77436868  0.70096188    -0.19500
C709        C  0.81079726  0.74027349  0.73575324    -0.28900
C710        C  0.80252748  0.75261405  0.77829075     0.44000
C711        C  0.76356426  0.86766499  0.75333511     0.05200
O712        O  0.78781609  0.84868943  0.67165059    -0.57400
H713        H  0.81309712  0.76589741  0.66799041     0.18100
O714        O  0.80629078  0.72122012  0.81362890    -0.64100
H715        H  0.78084710  0.80341798  0.81618510     0.16600
C716        C  0.73552985  0.85961291  0.74508165     0.28800
C717        C  0.71726477  0.89722396  0.75123921    -0.25000
C718        C  0.72652274  0.94357882  0.76551004    -0.24300
C719        C  0.75480874  0.95104170  0.77459816     0.40300
C720        C  0.77303184  0.91325924  0.76823346    -0.26800
O721        O  0.72579723  0.81480558  0.73148613    -0.58700
H722        H  0.69578165  0.89008814  0.74413497     0.15900
O723        O  0.76500203  0.99513705  0.78926133    -0.60100
H724        H  0.79462094  0.91947791  0.77517271     0.14400
H725        H  0.82477648  0.72835338  0.82763991     0.46200
H726        H  0.72515542  0.81523483  0.69836250     0.41600
H727        H  0.76613879  0.99338031  0.82238027     0.45100
H728        H  0.77150415  0.83541835  0.65415854     0.36500
C729        C  0.69560836  0.29486552  0.69453591    -0.27700
C730        C  0.70365677  0.32700965  0.72958833     0.01900
C731        C  0.69676402  0.31635209  0.77303533     0.30000
C732        C  0.68349676  0.27272611  0.78135880    -0.19500
C733        C  0.67742982  0.23852855  0.74696349    -0.28900
C734        C  0.68254062  0.25107322  0.70284044     0.44000
C735        C  0.72160962  0.36876711  0.72155922     0.05200
O736        O  0.70450122  0.34680946  0.80814858    -0.57400
H737        H  0.67987990  0.26411049  0.81551545     0.18100
O738        O  0.67620048  0.21964293  0.66790203    -0.64100
H739        H  0.70045788  0.30287697  0.66082954     0.16600
C740        C  0.74772098  0.36079499  0.70783039     0.28800
C741        C  0.76561117  0.39975943  0.70456800    -0.25000
C742        C  0.75783370  0.44747891  0.71404700    -0.24300
C743        C  0.73120191  0.45567442  0.72599381     0.40300
C744        C  0.71347711  0.41639904  0.73015320    -0.26800
O745        O  0.75654061  0.31459379  0.70018521    -0.58700
H746        H  0.78586272  0.39239564  0.69522581     0.15900
O747        O  0.72281709  0.50143214  0.73638799    -0.60100
H748        H  0.69345519  0.42305573  0.74081384     0.14400
H749        H  0.65839896  0.23080903  0.65390662     0.46200
H750        H  0.75406299  0.31022355  0.66725266     0.41600
H751        H  0.71160644  0.51262405  0.70935874     0.45100
H752        H  0.72328083  0.33695290  0.81852346     0.36500
loop_ 
_geom_bond_atom_site_label_1 
_geom_bond_atom_site_label_2 
_geom_bond_distance 
_geom_bond_site_symmetry_2 
_ccdc_geom_bond_type 
Fe1          O17   2.084       .  S
Fe1           O7   2.036       .  S
Fe1          O14   2.043       .  S
Fe1           O6   2.085       .  S
Fe1          O12   1.932       .  S
Fe2           O5   2.098       .  S
Fe2           O9   2.053       .  S
Fe2          O13   2.087       .  S
Fe2          O18   2.032       .  S
Fe2          O12   1.943       .  S
Fe3          O21   2.041       .  S
Fe3           O8   2.109       .  S
Fe3          O15   2.094       .  S
Fe3           O4   2.063       .  S
Fe3          O12   1.943       .  S
O4           C11   1.270       .  A
O5           C19   1.274       .  A
O6           C11   1.274       .  A
O7           C10   1.267       .  A
O8           C20   1.279       .  A
O9           C22   1.270       .  A
C10          O15   1.276       .  A
C10         C694   1.483       .  S
C11         C742   1.489       .  S
O13          C16   1.273       .  A
O14          C16   1.266       .  A
C16         C670   1.481       .  S
O17          C22   1.275       .  A
O18          C20   1.266       .  A
C19          O21   1.263       .  A
C19         C709   1.484       .  S
C20         C637   1.469       .  S
C22         C613   1.481       .  S
Fe23         O39   2.034       .  S
Fe23         O29   2.077       .  S
Fe23         O36   2.081       .  S
Fe23         O28   2.033       .  S
Fe23         O34   1.951       .  S
Fe24         O27   2.020       .  S
Fe24         O31   2.100       .  S
Fe24         O35   2.049       .  S
Fe24         O40   2.091       .  S
Fe24         O34   1.951       .  S
Fe25         O43   2.106       .  S
Fe25         O30   2.037       .  S
Fe25         O37   2.051       .  S
Fe25         O26   2.107       .  S
Fe25         O34   1.954       .  S
O26          C33   1.283       .  A
O27          C41   1.264       .  A
O28          C33   1.272       .  A
O29          C32   1.267       .  A
O30          C42   1.263       .  A
O31          C44   1.280       .  A
C32          O37   1.261       .  A
C32         C541   1.486       .  S
C33         C565   1.475       .  S
O35          C38   1.263       .  A
O36          C38   1.268       .  A
C38         C502   1.482       .  S
O39          C44   1.269       .  A
O40          C42   1.272       .  A
C41          O43   1.279       .  A
C41         C646   1.479       .  S
C42         C517   1.479       .  S
C44         C589   1.484       .  S
Fe45         O61   2.085       .  S
Fe45         O51   2.035       .  S
Fe45         O58   2.041   1_545  S
Fe45         O50   2.087   1_545  S
Fe45         O56   1.936       .  S
Fe46         O49   2.111       .  S
Fe46         O53   2.058       .  S
Fe46         O57   2.093       .  S
Fe46         O62   2.037       .  S
Fe46         O56   1.940       .  S
Fe47         O65   2.047       .  S
Fe47         O52   2.108       .  S
Fe47         O59   2.098       .  S
Fe47         O48   2.058       .  S
Fe47         O56   1.943       .  S
O48          C55   1.269   1_545  A
O49          C63   1.279       .  A
O50          C55   1.275       .  A
O51          C54   1.266       .  A
O52          C64   1.276       .  A
O53          C66   1.270       .  A
C54          O59   1.277       .  A
C54         C598   1.483       .  S
C55         C718   1.491       .  S
O57          C60   1.275       .  A
O58          C60   1.266   1_565  A
C60         C574   1.486   1_545  S
O61          C66   1.275       .  A
O62          C64   1.263       .  A
C63          O65   1.267       .  A
C63         C733   1.489       .  S
C64         C478   1.468       .  S
C66         C454   1.481       .  S
Fe67         O83   2.034       .  S
Fe67         O73   2.089       .  S
Fe67         O80   2.089       .  S
Fe67         O72   2.038       .  S
Fe67         O78   1.946       .  S
Fe68         O71   2.030       .  S
Fe68         O75   2.101       .  S
Fe68         O79   2.063       .  S
Fe68         O84   2.097       .  S
Fe68         O78   1.946       .  S
Fe69         O87   2.106       .  S
Fe69         O74   2.040       .  S
Fe69         O81   2.045       .  S
Fe69         O70   2.107       .  S
Fe69         O78   1.946       .  S
O70          C77   1.281       .  A
O71          C85   1.265       .  A
O72          C77   1.271       .  A
O73          C76   1.271       .  A
O74          C86   1.264       .  A
O75          C88   1.279       .  A
C76          O81   1.262       .  A
C76         C526   1.487       .  S
C77         C661   1.478       .  S
O79          C82   1.266       .  A
O80          C82   1.272       .  A
C82         C421   1.481       .  S
O83          C88   1.268       .  A
O84          C86   1.275       .  A
C85          O87   1.278       .  A
C85         C469   1.481       .  S
C86         C550   1.483       .  S
C88         C685   1.485       .  S
Fe89        O105   2.085       .  S
Fe89         O95   2.025       .  S
Fe89        O102   2.030       .  S
Fe89         O94   2.085       .  S
Fe89        O100   1.935       .  S
Fe90         O93   2.104       .  S
Fe90         O97   2.059       .  S
Fe90        O101   2.089       .  S
Fe90        O106   2.031       .  S
Fe90        O100   1.940       .  S
Fe91        O109   2.041       .  S
Fe91         O96   2.113       .  S
Fe91        O103   2.100       .  S
Fe91         O92   2.060       .  S
Fe91        O100   1.935       .  S
O92          C99   1.268       .  A
O93         C107   1.275       .  A
O94          C99   1.272       .  A
O95          C98   1.266       .  A
O96         C108   1.280       .  A
O97         C110   1.270       .  A
C98         O103   1.280       .  A
C98         C358   1.478       .  S
C99         C397   1.489       .  S
O101        C104   1.275       .  A
O102        C104   1.266       .  A
C104        C334   1.471       .  S
O105        C110   1.274       .  A
O106        C108   1.264       .  A
C107        O109   1.264       .  A
C107        C382   1.491       .  S
C108        C310   1.466       .  S
C110        C622   1.488       .  S
Fe111       O127   2.027       .  S
Fe111       O117   2.081       .  S
Fe111       O124   2.076       .  S
Fe111       O116   2.032       .  S
Fe111       O122   1.947       .  S
Fe112       O115   2.027       .  S
Fe112       O119   2.113       .  S
Fe112       O123   2.062       .  S
Fe112       O128   2.113       .  S
Fe112       O122   1.947       .  S
Fe113       O131   2.112       .  S
Fe113       O118   2.047       .  S
Fe113       O125   2.056       .  S
Fe113       O114   2.113       .  S
Fe113       O122   1.944       .  S
O114        C121   1.283       .  A
O115        C129   1.266       .  A
O116        C121   1.269       .  A
O117        C120   1.268       .  A
O118        C130   1.266       .  A
O119        C132   1.281       .  A
C120        O125   1.264       .  A
C120        C229   1.487       .  S
C121        C262   1.483       .  S
O123        C126   1.266       .  A
O124        C126   1.269       .  A
C126        C493   1.472       .  S
O127        C132   1.267       .  A
O128        C130   1.277       .  A
C129        O131   1.280       .  A
C129        C301   1.481       .  S
C130        C205   1.496       .  S
C132        C277   1.486       .  S
Fe133       O149   2.032       .  S
Fe133       O139   2.088       .  S
Fe133       O146   2.091       .  S
Fe133       O138   2.028       .  S
Fe133       O144   1.935       .  S
Fe134       O137   2.031       .  S
Fe134       O141   2.090       .  S
Fe134       O145   2.064       .  S
Fe134       O150   2.095       .  S
Fe134       O144   1.943       .  S
Fe135       O153   2.106       .  S
Fe135       O140   2.056       .  S
Fe135       O147   2.077       .  S
Fe135       O136   2.097       .  S
Fe135       O144   1.946       .  S
O136        C143   1.278       .  A
O137        C151   1.265       .  A
O138        C143   1.268       .  A
O139        C142   1.273       .  A
O140        C152   1.267       .  A
O141        C154   1.276       .  A
C142        O147   1.270       .  A
C142        C214   1.502       .  S
C143        C325   1.473       .  S
O145        C148   1.270       .  A
O146        C148   1.274       .  A
C148        C430   1.493       .  S
O149        C154   1.266       .  A
O150        C152   1.274       .  A
C151        O153   1.278       .  A
C151        C190   1.464       .  S
C152        C238   1.483       .  S
C154        C349   1.477       .  S
Fe155       O171   2.089       .  S
Fe155       O161   2.035       .  S
Fe155       O168   2.050   1_545  S
Fe155       O160   2.080   1_545  S
Fe155       O166   1.952       .  S
Fe156       O159   2.088       .  S
Fe156       O163   2.049       .  S
Fe156       O167   2.098       .  S
Fe156       O172   2.010       .  S
Fe156       O166   1.951       .  S
Fe157       O175   2.049       .  S
Fe157       O162   2.113       .  S
Fe157       O169   2.105       .  S
Fe157       O158   2.060       .  S
Fe157       O166   1.957       .  S
O158        C165   1.265   1_545  A
O159        C173   1.272       .  A
O160        C165   1.268       .  A
O161        C164   1.271       .  A
O162        C174   1.280       .  A
O163        C176   1.264       .  A
C164        O169   1.282       .  A
C164        C286   1.480       .  S
C165        C373   1.495       .  S
O167        C170   1.277       .  A
O168        C170   1.270   1_565  A
C170        C253   1.488   1_545  S
O171        C176   1.272       .  A
O172        C174   1.264       .  A
C173        O175   1.265       .  A
C173        C406   1.483       .  S
C174        C181   1.481       .  S
C176        C445   1.488       .  S
C177        C178   1.409       .  A
C177        C182   1.407       .  A
C177        H187   1.083       .  S
C178        C183   1.480       .  S
C178        C179   1.402       .  A
C179        C180   1.389       .  A
C179        O184   1.374       .  S
C180        C181   1.408       .  A
C180        H185   1.082       .  S
C181        C182   1.409       .  A
C182        O186   1.371       .  S
C183        C188   1.411       .  A
C183        C192   1.403       .  A
O184        H200   0.992       .  S
O186        H197   0.992       .  S
C188        C189   1.398       .  A
C188        O193   1.372       .  S
C189        C190   1.401       .  A
C189        H194   1.083       .  S
C190        C191   1.407       .  A
C191        C192   1.399       .  A
C191        O195   1.372       .  S
C192        H196   1.084       .  S
O193        H198   0.992       .  S
O195        H199   0.992       .  S
C201        C202   1.407       .  A
C201        C206   1.410       .  A
C201        H211   1.083       .  S
C202        C207   1.495       .  S
C202        C203   1.407       .  A
C203        C204   1.404       .  A
C203        O208   1.373       .  S
C204        C205   1.410       .  A
C204        H209   1.084       .  S
C205        C206   1.413       .  A
C206        O210   1.371       .  S
C207        C212   1.409       .  A
C207        C216   1.405       .  A
O208        H224   0.992       .  S
O210        H221   0.992       .  S
C212        C213   1.401       .  A
C212        O217   1.372       .  S
C213        C214   1.408       .  A
C213        H218   1.083       .  S
C214        C215   1.417       .  A
C215        C216   1.411       .  A
C215        O219   1.371       .  S
C216        H220   1.083       .  S
O217        H222   0.992       .  S
O219        H223   0.992       .  S
C225        C226   1.404       .  A
C225        C230   1.403       .  A
C225        H235   1.084       .  S
C226        C231   1.483       .  S
C226        C227   1.406       .  A
C227        C228   1.403   1_545  A
C227        O232   1.372       .  S
C228        C229   1.408       .  A
C228        H233   1.083       .  S
C229        C230   1.412   1_565  A
C230        O234   1.372       .  S
C231        C236   1.407       .  A
C231        C240   1.403       .  A
O232        H248   0.992   1_545  S
O234        H245   0.992       .  S
C236        C237   1.402       .  A
C236        O241   1.372       .  S
C237        C238   1.406       .  A
C237        H242   1.083       .  S
C238        C239   1.411       .  A
C239        C240   1.404       .  A
C239        O243   1.372       .  S
C240        H244   1.084       .  S
O241        H246   0.991       .  S
O243        H247   0.992       .  S
C249        C250   1.400   1_545  A
C249        C254   1.401       .  A
C249        H259   1.084       .  S
C250        C255   1.475       .  S
C250        C251   1.403       .  A
C251        C252   1.401       .  A
C251        O256   1.372       .  S
C252        C253   1.409       .  A
C252        H257   1.083       .  S
C253        C254   1.414   1_565  A
C254        O258   1.371       .  S
C255        C260   1.406       .  A
C255        C264   1.397       .  A
O256        H272   0.991       .  S
O258        H269   0.992       .  S
C260        C261   1.402       .  A
C260        O265   1.371       .  S
C261        C262   1.405       .  A
C261        H266   1.083       .  S
C262        C263   1.416       .  A
C263        C264   1.399       .  A
C263        O267   1.373       .  S
C264        H268   1.084       .  S
O265        H270   0.992       .  S
O267        H271   0.992       .  S
C273        C274   1.404       .  A
C273        C278   1.401   1_556  A
C273        H283   1.083       .  S
C274        C279   1.477   1_565  S
C274        C275   1.403   1_566  A
C275        C276   1.396   1_545  A
C275        O280   1.372       .  S
C276        C277   1.411       .  A
C276        H281   1.083   1_565  S
C277        C278   1.411       .  A
C278        O282   1.372       .  S
C279        C284   1.403       .  A
C279        C288   1.405       .  A
O280        H296   0.992       .  S
O282        H293   0.992       .  S
C284        C285   1.395       .  A
C284        O289   1.372       .  S
C285        C286   1.408       .  A
C285        H290   1.084       .  S
C286        C287   1.410       .  A
C287        C288   1.402       .  A
C287        O291   1.371       .  S
C288        H292   1.084       .  S
O289        H294   0.992   1_545  S
O291        H295   0.992       .  S
C297        C298   1.402       .  A
C297        C302   1.394       .  A
C297        H307   1.083   1_554  S
C298        C303   1.492   1_554  S
C298        C299   1.415       .  A
C299        C300   1.405       .  A
C299        O304   1.371       .  S
C300        C301   1.403       .  A
C300        H305   1.083       .  S
C301        C302   1.413       .  A
C302        O306   1.373       .  S
C303        C308   1.414       .  A
C303        C312   1.407       .  A
O304        H320   0.992       .  S
O306        H317   0.992       .  S
C308        C309   1.399       .  A
C308        O313   1.372       .  S
C309        C310   1.400       .  A
C309        H314   1.084       .  S
C310        C311   1.406       .  A
C311        C312   1.402       .  A
C311        O315   1.372       .  S
C312        H316   1.083   1_556  S
O313        H318   0.992       .  S
O315        H319   0.992       .  S
C321        C322   1.396       .  A
C321        C326   1.393       .  A
C321        H331   1.084       .  S
C322        C327   1.464       .  S
C322        C323   1.405       .  A
C323        C324   1.398       .  A
C323        O328   1.371       .  S
C324        C325   1.404       .  A
C324        H329   1.083       .  S
C325        C326   1.414       .  A
C326        O330   1.372       .  S
C327        C332   1.401   1_554  A
C327        C336   1.400   1_554  A
O328        H344   0.992       .  S
O330        H341   0.992       .  S
C332        C333   1.396       .  A
C332        O337   1.371       .  S
C333        C334   1.406       .  A
C333        H338   1.084       .  S
C334        C335   1.410       .  A
C335        C336   1.397       .  A
C335        O339   1.372       .  S
C336        H340   1.084   1_556  S
O337        H342   0.992       .  S
O339        H343   0.991       .  S
C345        C346   1.397       .  A
C345        C350   1.396       .  A
C345        H355   1.084       .  S
C346        C351   1.466       .  S
C346        C347   1.405       .  A
C347        C348   1.395       .  A
C347        O352   1.372       .  S
C348        C349   1.405       .  A
C348        H353   1.083       .  S
C349        C350   1.415       .  A
C350        O354   1.372       .  S
C351        C356   1.405       .  A
C351        C360   1.396       .  A
O352        H368   0.992       .  S
O354        H365   0.992       .  S
C356        C357   1.397       .  A
C356        O361   1.371       .  S
C357        C358   1.405       .  A
C357        H362   1.083       .  S
C358        C359   1.417       .  A
C359        C360   1.393       .  A
C359        O363   1.372       .  S
C360        H364   1.084       .  S
O361        H366   0.992       .  S
O363        H367   0.992       .  S
C369        C370   1.402       .  A
C369        C374   1.401       .  A
C369        H379   1.084       .  S
C370        C375   1.484       .  S
C370        C371   1.405       .  A
C371        C372   1.404       .  A
C371        O376   1.371       .  S
C372        C373   1.411       .  A
C372        H377   1.083       .  S
C373        C374   1.415       .  A
C374        O378   1.372       .  S
C375        C380   1.405       .  A
C375        C384   1.404       .  A
O376        H392   0.992       .  S
O378        H389   0.992       .  S
C380        C381   1.399       .  A
C380        O385   1.372       .  S
C381        C382   1.410       .  A
C381        H386   1.083       .  S
C382        C383   1.414       .  A
C383        C384   1.405       .  A
C383        O387   1.371       .  S
C384        H388   1.084       .  S
O385        H390   0.992       .  S
O387        H391   0.991       .  S
C393        C394   1.404       .  A
C393        C398   1.401       .  A
C393        H403   1.084       .  S
C394        C399   1.486       .  S
C394        C395   1.406       .  A
C395        C396   1.404       .  A
C395        O400   1.371       .  S
C396        C397   1.409       .  A
C396        H401   1.083       .  S
C397        C398   1.412       .  A
C398        O402   1.372       .  S
C399        C404   1.407       .  A
C399        C408   1.404       .  A
O400        H416   0.992       .  S
O402        H413   0.992       .  S
C404        C405   1.401       .  A
C404        O409   1.372       .  S
C405        C406   1.406       .  A
C405        H410   1.084       .  S
C406        C407   1.412       .  A
C407        C408   1.404       .  A
C407        O411   1.372       .  S
C408        H412   1.084       .  S
O409        H414   0.992       .  S
O411        H415   0.992       .  S
C417        C418   1.405       .  A
C417        C422   1.398       .  A
C417        H427   1.084       .  S
C418        C423   1.493   1_655  S
C418        C419   1.413       .  A
C419        C420   1.408       .  A
C419        O424   1.372       .  S
C420        C421   1.404       .  A
C420        H425   1.084       .  S
C421        C422   1.409       .  A
C422        O426   1.372       .  S
C423        C428   1.411       .  A
C423        C432   1.404       .  A
O424        H440   0.992       .  S
O426        H437   0.992       .  S
C428        C429   1.405       .  A
C428        O433   1.371       .  S
C429        C430   1.408       .  A
C429        H434   1.083       .  S
C430        C431   1.415       .  A
C431        C432   1.400       .  A
C431        O435   1.372       .  S
C432        H436   1.084       .  S
O433        H438   0.992       .  S
O435        H439   0.992       .  S
C441        C442   1.400       .  A
C441        C446   1.402       .  A
C441        H451   1.084       .  S
C442        C447   1.479       .  S
C442        C443   1.406       .  A
C443        C444   1.400       .  A
C443        O448   1.372       .  S
C444        C445   1.406       .  A
C444        H449   1.083       .  S
C445        C446   1.416       .  A
C446        O450   1.372       .  S
C447        C452   1.406       .  A
C447        C456   1.403       .  A
O448        H464   0.992   1_545  S
O450        H461   0.992       .  S
C452        C453   1.399       .  A
C452        O457   1.372       .  S
C453        C454   1.405       .  A
C453        H458   1.084       .  S
C454        C455   1.412       .  A
C455        C456   1.404       .  A
C455        O459   1.371       .  S
C456        H460   1.084       .  S
O457        H462   0.991       .  S
O459        H463   0.992       .  S
C465        C466   1.400       .  A
C465        C470   1.395   1_556  A
C465        H475   1.083       .  S
C466        C471   1.487       .  S
C466        C467   1.414   1_556  A
C467        C468   1.404       .  A
C467        O472   1.371       .  S
C468        C469   1.403       .  A
C468        H473   1.083       .  S
C469        C470   1.414       .  A
C470        O474   1.372       .  S
C471        C476   1.411       .  A
C471        C480   1.406       .  A
O472        H488   0.992       .  S
O474        H485   0.992       .  S
C476        C477   1.402       .  A
C476        O481   1.372       .  S
C477        C478   1.402       .  A
C477        H482   1.083       .  S
C478        C479   1.406       .  A
C479        C480   1.399       .  A
C479        O483   1.371       .  S
C480        H484   1.083       .  S
O481        H486   0.992       .  S
O483        H487   0.992       .  S
C489        C490   1.406       .  A
C489        C494   1.403       .  A
C489        H499   1.083       .  S
C490        C495   1.479       .  S
C490        C491   1.406       .  A
C491        C492   1.397       .  A
C491        O496   1.373       .  S
C492        C493   1.403       .  A
C492        H497   1.084       .  S
C493        C494   1.407       .  A
C494        O498   1.371       .  S
C495        C500   1.408       .  A
C495        C504   1.402       .  A
O496        H512   0.991       .  S
O498        H509   0.992       .  S
C500        C501   1.397       .  A
C500        O505   1.372       .  S
C501        C502   1.406       .  A
C501        H506   1.084       .  S
C502        C503   1.412       .  A
C503        C504   1.400       .  A
C503        O507   1.371       .  S
C504        H508   1.084       .  S
O505        H510   0.992       .  S
O507        H511   0.992       .  S
C513        C514   1.405       .  A
C513        C518   1.402       .  A
C513        H523   1.084       .  S
C514        C519   1.484       .  S
C514        C515   1.406       .  A
C515        C516   1.401       .  A
C515        O520   1.373       .  S
C516        C517   1.407       .  A
C516        H521   1.084       .  S
C517        C518   1.409       .  A
C518        O522   1.371       .  S
C519        C524   1.411       .  A
C519        C528   1.400       .  A
O520        H536   0.992       .  S
O522        H533   0.992       .  S
C524        C525   1.401       .  A
C524        O529   1.372       .  S
C525        C526   1.404       .  A
C525        H530   1.083       .  S
C526        C527   1.416       .  A
C527        C528   1.401       .  A
C527        O531   1.372       .  S
C528        H532   1.084       .  S
O529        H534   0.992       .  S
O531        H535   0.992       .  S
C537        C538   1.404       .  A
C537        C542   1.399       .  A
C537        H547   1.084       .  S
C538        C543   1.485       .  S
C538        C539   1.407       .  A
C539        C540   1.405   1_545  A
C539        O544   1.373       .  S
C540        C541   1.409       .  A
C540        H545   1.083       .  S
C541        C542   1.410   1_565  A
C542        O546   1.372       .  S
C543        C548   1.411       .  A
C543        C552   1.402       .  A
O544        H560   0.992   1_545  S
O546        H557   0.992       .  S
C548        C549   1.403       .  A
C548        O553   1.372       .  S
C549        C550   1.405       .  A
C549        H554   1.084       .  S
C550        C551   1.413       .  A
C551        C552   1.400       .  A
C551        O555   1.373       .  S
C552        H556   1.084       .  S
O553        H558   0.992       .  S
O555        H559   0.992       .  S
C561        C562   1.399       .  A
C561        C566   1.397       .  A
C561        H571   1.084       .  S
C562        C567   1.474   1_554  S
C562        C563   1.408       .  A
C563        C564   1.400       .  A
C563        O568   1.371       .  S
C564        C565   1.402       .  A
C564        H569   1.083       .  S
C565        C566   1.413       .  A
C566        O570   1.373       .  S
C567        C572   1.402       .  A
C567        C576   1.402       .  A
O568        H584   0.992       .  S
O570        H581   0.992       .  S
C572        C573   1.398       .  A
C572        O577   1.372       .  S
C573        C574   1.411       .  A
C573        H578   1.083       .  S
C574        C575   1.413   1_565  A
C575        C576   1.399   1_545  A
C575        O579   1.372       .  S
C576        H580   1.084   1_556  S
O577        H582   0.992       .  S
O579        H583   0.992       .  S
C585        C586   1.398   1_545  A
C585        C590   1.397   1_545  A
C585        H595   1.084       .  S
C586        C591   1.473   1_565  S
C586        C587   1.406       .  A
C587        C588   1.397       .  A
C587        O592   1.372       .  S
C588        C589   1.407       .  A
C588        H593   1.083       .  S
C589        C590   1.417       .  A
C590        O594   1.372   1_565  S
C591        C596   1.406       .  A
C591        C600   1.398       .  A
O592        H608   0.992       .  S
O594        H605   0.991       .  S
C596        C597   1.398       .  A
C596        O601   1.372       .  S
C597        C598   1.406       .  A
C597        H602   1.083       .  S
C598        C599   1.416       .  A
C599        C600   1.398       .  A
C599        O603   1.373       .  S
C600        H604   1.084   1_545  S
O601        H606   0.992   1_545  S
O603        H607   0.992   1_545  S
C609        C610   1.404       .  A
C609        C614   1.402       .  A
C609        H619   1.084       .  S
C610        C615   1.484   1_655  S
C610        C611   1.408       .  A
C611        C612   1.398       .  A
C611        O616   1.373       .  S
C612        C613   1.404       .  A
C612        H617   1.084       .  S
C613        C614   1.412       .  A
C614        O618   1.372       .  S
C615        C620   1.409       .  A
C615        C624   1.403       .  A
O616        H632   0.992       .  S
O618        H629   0.992       .  S
C620        C621   1.397       .  A
C620        O625   1.372       .  S
C621        C622   1.408       .  A
C621        H626   1.083       .  S
C622        C623   1.413       .  A
C623        C624   1.402       .  A
C623        O627   1.371       .  S
C624        H628   1.084       .  S
O625        H630   0.992       .  S
O627        H631   0.992       .  S
C633        C634   1.405       .  A
C633        C638   1.397       .  A
C633        H643   1.083       .  S
C634        C639   1.488       .  S
C634        C635   1.414       .  A
C635        C636   1.401       .  A
C635        O640   1.372       .  S
C636        C637   1.402       .  A
C636        H641   1.084       .  S
C637        C638   1.407       .  A
C638        O642   1.373       .  S
C639        C644   1.416       .  A
C639        C648   1.400       .  A
O640        H656   0.992       .  S
O642        H653   0.992       .  S
C644        C645   1.405       .  A
C644        O649   1.373       .  S
C645        C646   1.401       .  A
C645        H650   1.083       .  S
C646        C647   1.415       .  A
C647        C648   1.393       .  A
C647        O651   1.373       .  S
C648        H652   1.083       .  S
O649        H654   0.992       .  S
O651        H655   0.992       .  S
C657        C658   1.402       .  A
C657        C662   1.402       .  A
C657        H667   1.084       .  S
C658        C663   1.470       .  S
C658        C659   1.401       .  A
C659        C660   1.396       .  A
C659        O664   1.372       .  S
C660        C661   1.407       .  A
C660        H665   1.084       .  S
C661        C662   1.410       .  A
C662        O666   1.371       .  S
C663        C668   1.404       .  A
C663        C672   1.399       .  A
O664        H680   0.992       .  S
O666        H677   0.992       .  S
C668        C669   1.395       .  A
C668        O673   1.372       .  S
C669        C670   1.405       .  A
C669        H674   1.083       .  S
C670        C671   1.415       .  A
C671        C672   1.401       .  A
C671        O675   1.372       .  S
C672        H676   1.084       .  S
O673        H678   0.991       .  S
O675        H679   0.992       .  S
C681        C682   1.403       .  A
C681        C686   1.398   1_556  A
C681        H691   1.084       .  S
C682        C687   1.477       .  S
C682        C683   1.403   1_556  A
C683        C684   1.397       .  A
C683        O688   1.372       .  S
C684        C685   1.410       .  A
C684        H689   1.083       .  S
C685        C686   1.412       .  A
C686        O690   1.371       .  S
C687        C692   1.404       .  A
C687        C696   1.404       .  A
O688        H704   0.991       .  S
O690        H701   0.991       .  S
C692        C693   1.396       .  A
C692        O697   1.373       .  S
C693        C694   1.409       .  A
C693        H698   1.084       .  S
C694        C695   1.412       .  A
C695        C696   1.401       .  A
C695        O699   1.372       .  S
C696        H700   1.084       .  S
O697        H702   0.992       .  S
O699        H703   0.992       .  S
C705        C706   1.398       .  A
C705        C710   1.397       .  A
C705        H715   1.084       .  S
C706        C711   1.474       .  S
C706        C707   1.406       .  A
C707        C708   1.402       .  A
C707        O712   1.372       .  S
C708        C709   1.408       .  A
C708        H713   1.083       .  S
C709        C710   1.415       .  A
C710        O714   1.372       .  S
C711        C716   1.405       .  A
C711        C720   1.398       .  A
O712        H728   0.992       .  S
O714        H725   0.991       .  S
C716        C717   1.399       .  A
C716        O721   1.372       .  S
C717        C718   1.409       .  A
C717        H722   1.083       .  S
C718        C719   1.417       .  A
C719        C720   1.402       .  A
C719        O723   1.371       .  S
C720        H724   1.084       .  S
O721        H726   0.992       .  S
O723        H727   0.992       .  S
C729        C730   1.402       .  A
C729        C734   1.402       .  A
C729        H739   1.084       .  S
C730        C735   1.487       .  S
C730        C731   1.409       .  A
C731        C732   1.403       .  A
C731        O736   1.372       .  S
C732        C733   1.407       .  A
C732        H737   1.083       .  S
C733        C734   1.414       .  A
C734        O738   1.372       .  S
C735        C740   1.408       .  A
C735        C744   1.403       .  A
O736        H752   0.992       .  S
O738        H749   0.992       .  S
C740        C741   1.400       .  A
C740        O745   1.372       .  S
C741        C742   1.406       .  A
C741        H746   1.084       .  S
C742        C743   1.414       .  A
C743        C744   1.405       .  A
C743        O747   1.372       .  S
C744        H748   1.083       .  S
O745        H750   0.992       .  S
O747        H751   0.992       .  S
