geometry optimzed in LAMMPS
_audit_creation_date              2020-11-30 
_audit_creation_method            'lammps2cif' 
_symmetry_space_group_name_H-M    'P1' 
_symmetry_Int_Tables_number       1 
_symmetry_cell_setting            triclinic 
loop_ 
_symmetry_equiv_pos_as_xyz 
  x,y,z 
_cell_length_a                    41.50708589624959 
_cell_length_b                    40.369312272766436 
_cell_length_c                    37.226473241884456 
_cell_angle_alpha                 90.10188374952702 
_cell_angle_beta                  90.2699695048088 
_cell_angle_gamma                 90.31649942087498 
loop_ 
_atom_site_label 
_atom_site_type_symbol 
_atom_site_fract_x 
_atom_site_fract_y 
_atom_site_fract_z 
_atom_site_charge 
Fe1        Fe  0.89091609  0.03985549  0.11778389     1.65780
Fe2        Fe  0.88726544  0.08783998  0.04499934     1.73250
Fe3        Fe  0.83861232  0.10080281  0.11321875     1.54420
O4          O  0.81926533  0.06037640  0.14191716    -0.81080
O5          O  0.89805844  0.13453066  0.06163313    -0.79390
O6          O  0.84544835  0.01728714  0.12025458    -0.83590
O7          O  0.88371717  0.06361064  0.16848927    -0.78440
O8          O  0.81105842  0.08446219  0.07296835    -0.80220
O9          O  0.93391658  0.07450620  0.05643381    -0.82960
C10         C  0.87727275  0.09362912  0.17746683     0.97800
C11         C  0.81943269  0.03012493  0.13193736     1.05240
O12         O  0.87277200  0.07623704  0.09224565    -1.11940
O13         O  0.87635883  0.04205462  0.02615627    -0.74380
O14         O  0.89883520  0.01220709  0.06946688    -0.77860
O15         O  0.86808317  0.11441425  0.15421409    -0.78550
C16         C  0.88727785  0.01487143  0.03744821     0.96710
O17         O  0.93570942  0.06364803  0.11476269    -0.76510
O18         O  0.84191397  0.10266364  0.02914159    -0.81700
C19         C  0.87515378  0.15439403  0.06678913     0.99330
C20         C  0.81440652  0.09565200  0.04190193     1.05250
O21         O  0.85050025  0.14518107  0.08485747    -0.77350
C22         C  0.94848348  0.07571579  0.08647472     1.03550
Fe23       Fe  0.62341812  0.18748286  0.88421568     1.65780
Fe24       Fe  0.63283847  0.14269374  0.96094869     1.73250
Fe25       Fe  0.67490336  0.12179113  0.88765903     1.54410
O26         O  0.65406563  0.12153687  0.83850777    -0.81080
O27         O  0.67977640  0.14693526  0.97517627    -0.79390
O28         O  0.61813313  0.16132367  0.83558343    -0.83590
O29         O  0.66931389  0.20719359  0.87018624    -0.78440
O30         O  0.65042015  0.07763423  0.90114221    -0.80220
O31         O  0.62832420  0.18995399  0.97643769    -0.82960
C32         C  0.69788321  0.19504218  0.87091168     0.97800
C33         C  0.63209280  0.13640744  0.82186793     1.05240
O34         O  0.64324650  0.15065919  0.91051697    -1.11940
O35         O  0.58551664  0.13879693  0.94829298    -0.74380
O36         O  0.57779422  0.16780314  0.89783572    -0.77860
O37         O  0.70290295  0.16405720  0.87599128    -0.78550
C38         C  0.56786311  0.14775124  0.92227212     0.96710
O39         O  0.62486308  0.22086767  0.92779665    -0.76510
O40         O  0.63659254  0.09263900  0.95645779    -0.81700
C41         C  0.70215707  0.12952123  0.96259069     0.99330
C42         C  0.64171181  0.07060023  0.93315543     1.05250
O43         O  0.70043270  0.11563722  0.93256111    -0.77350
C44         C  0.62709040  0.21768807  0.96168827     1.03550
Fe45       Fe  0.88669421  0.29037842  0.88485250     1.65780
Fe46       Fe  0.88128610  0.33665398  0.95859161     1.73250
Fe47       Fe  0.83313806  0.35122903  0.88918594     1.54410
O48         O  0.86318060  0.36551663  0.84922954    -0.81080
O49         O  0.83442526  0.35051249  0.97360821    -0.79390
O50         O  0.88124092  0.31529308  0.83476629    -0.83590
O51         O  0.84233655  0.26714656  0.87841450    -0.78440
O52         O  0.84541371  0.39536342  0.91995764    -0.80220
O53         O  0.87066922  0.29118835  0.97722909    -0.82960
C54         C  0.81601631  0.27898278  0.86624552     0.97800
C55         C  0.87438553  0.34532501  0.82652296     1.05240
O56         O  0.86672328  0.32543563  0.91095230    -1.11940
O57         O  0.92912734  0.32464989  0.94817318    -0.74380
O58         O  0.93050731  0.31523097  0.88957068    -0.77860
O59         O  0.81387812  0.31009676  0.85943221    -0.78550
C60         C  0.94310637  0.32722358  0.91792532     0.96710
O61         O  0.89296879  0.26144228  0.93336160    -0.76510
O62         O  0.89303963  0.38227074  0.94141098    -0.81700
C63         C  0.80690492  0.34575608  0.95912013     0.99330
C64         C  0.87054831  0.40258946  0.93879353     1.05250
O65         O  0.80345624  0.33599189  0.92741176    -0.77350
C66         C  0.88123282  0.26416328  0.96533149     1.03550
Fe67       Fe  0.62635847  0.44274062  0.11520654     1.65780
Fe68       Fe  0.61959032  0.39303167  0.04248206     1.73250
Fe69       Fe  0.67511065  0.37885367  0.10506053     1.54420
O70         O  0.70021471  0.41849937  0.13009747    -0.81080
O71         O  0.60950085  0.34827373  0.06287662    -0.79390
O72         O  0.67281822  0.46384303  0.11608649    -0.83590
O73         O  0.63437301  0.41795265  0.16516871    -0.78440
O74         O  0.69870405  0.39154458  0.06110393    -0.80220
O75         O  0.57453849  0.40714150  0.05978940    -0.82960
C76         C  0.63967555  0.38752488  0.17343207     0.97800
C77         C  0.69918422  0.44977695  0.12493442     1.05240
O78         O  0.64057883  0.40558996  0.08735235    -1.11940
O79         O  0.62848905  0.43757119  0.02054022    -0.74380
O80         O  0.61799806  0.47114106  0.06701436    -0.77860
O81         O  0.65000404  0.36744998  0.15005749    -0.78550
C82         C  0.62389259  0.46604570  0.03341838     0.96710
O83         O  0.58053564  0.42074432  0.11706543    -0.76510
O84         O  0.66270954  0.37608531  0.02004318    -0.81700
C85         C  0.63153120  0.32730746  0.06364946     0.99330
C86         C  0.69164867  0.37964570  0.03093900     1.05250
O87         O  0.65819178  0.33483624  0.07902781    -0.77350
C88         C  0.56470722  0.40659139  0.09198078     1.03550
Fe89       Fe  0.88804030  0.18977605  0.38666104     1.65780
Fe90       Fe  0.88683360  0.14180377  0.45872701     1.73250
Fe91       Fe  0.83512834  0.12785716  0.39163474     1.54410
O92         O  0.81486154  0.16814156  0.36381823    -0.81080
O93         O  0.89690240  0.09685603  0.43839557    -0.79390
O94         O  0.84191609  0.21181197  0.38428265    -0.83590
O95         O  0.88072044  0.16626993  0.33674479    -0.78440
O96         O  0.80760234  0.14238233  0.43304449    -0.80220
O97         O  0.93381007  0.15528711  0.44649118    -0.82960
C98         C  0.87472745  0.13636988  0.32717847     0.97800
C99         C  0.81557871  0.19871045  0.37265272     1.05240
O100        O  0.86982292  0.15370092  0.41240979    -1.11940
O101        O  0.87810762  0.18678403  0.47977096    -0.74380
O102        O  0.89716012  0.21722927  0.43455756    -0.77860
O103        O  0.86314643  0.11501156  0.34864818    -0.78550
C104        C  0.88813565  0.21398804  0.46734487     0.96710
O105        O  0.93305003  0.16575733  0.38842396    -0.76510
O106        O  0.84102710  0.12643785  0.47565538    -0.81700
C107        C  0.87382243  0.07682057  0.43776646     0.99330
C108        C  0.81265750  0.12950670  0.46317220     1.05250
O109        O  0.84820277  0.08370191  0.42010807    -0.77350
C110        C  0.94689557  0.15305978  0.41584322     1.03550
Fe111      Fe  0.62299635  0.04152420  0.61217509     1.65780
Fe112      Fe  0.63232399  0.08623394  0.53787335     1.73250
Fe113      Fe  0.67605341  0.10561881  0.60996630     1.54410
O114        O  0.65255997  0.10998077  0.65822560    -0.81080
O115        O  0.67733971  0.07081730  0.52375249    -0.79390
O116        O  0.61861470  0.06707506  0.66048866    -0.83590
O117        O  0.66781330  0.02109136  0.62701865    -0.78440
O118        O  0.65347330  0.14954476  0.59315925    -0.80220
O119        O  0.61232928  0.04172588  0.52424659    -0.82960
C120        C  0.69639423  0.03303942  0.62969064     0.97800
C121        C  0.63155670  0.09274312  0.67432330     1.05240
O122        O  0.64349528  0.07784475  0.58765390    -1.11940
O123        O  0.58875109  0.10132470  0.55555405    -0.74380
O124        O  0.57752910  0.06203869  0.59666356    -0.77860
O125        O  0.70223150  0.06405373  0.62704018    -0.78550
C126        C  0.56943078  0.08732768  0.57735980     0.96710
O127        O  0.62689006  0.00993197  0.56813589    -0.76510
O128        O  0.64856830  0.13366019  0.53675526    -0.81700
C129        C  0.70260231  0.08504261  0.53595853     0.99330
C130        C  0.64906329  0.15607184  0.56009874     1.05250
O131        O  0.70254851  0.10354416  0.56373626    -0.77350
C132        C  0.61969730  0.01360181  0.53536865     1.03550
Fe133      Fe  0.62489647  0.28827973  0.38351046     1.65780
Fe134      Fe  0.62442407  0.33559978  0.45650736     1.73250
Fe135      Fe  0.67401349  0.35411346  0.38940186     1.54420
O136        O  0.69897130  0.31370739  0.36524377    -0.81080
O137        O  0.60860396  0.37950210  0.43779716    -0.79390
O138        O  0.67122223  0.26799430  0.37945996    -0.83590
O139        O  0.62983086  0.31192523  0.33310249    -0.78440
O140        O  0.70237829  0.34555330  0.43179902    -0.80220
O141        O  0.57972918  0.31562006  0.44427951    -0.82960
C142        C  0.63560323  0.34174160  0.32311189     0.97800
C143        C  0.69760976  0.28221412  0.37040509     1.05240
O144        O  0.64173260  0.32556078  0.40971574    -1.11940
O145        O  0.64006874  0.29198472  0.47555125    -0.74380
O146        O  0.61941098  0.26003128  0.43198580    -0.77860
O147        O  0.64664092  0.36338048  0.34466002    -0.78550
C148        C  0.63140534  0.26403183  0.46369618     0.96710
O149        O  0.57906677  0.31036777  0.38612489    -0.76510
O150        O  0.66736593  0.35697120  0.47418317    -0.81700
C151        C  0.62941081  0.40202619  0.43471738     0.99330
C152        C  0.69579467  0.35694155  0.46217646     1.05250
O153        O  0.65499207  0.39733695  0.41601003    -0.77350
C154        C  0.56574526  0.32103508  0.41461425     1.03550
Fe155      Fe  0.88495941  0.43957557  0.61710922     1.65780
Fe156      Fe  0.88109592  0.39616775  0.54038879     1.73250
Fe157      Fe  0.83447840  0.37342578  0.60807562     1.54410
O158        O  0.85276934  0.37243293  0.65928461    -0.81080
O159        O  0.83449440  0.40826926  0.52375143    -0.79390
O160        O  0.88835691  0.41357023  0.66541693    -0.83590
O161        O  0.83903920  0.45800292  0.63042202    -0.78440
O162        O  0.85940524  0.32953891  0.59411910    -0.80220
O163        O  0.89815102  0.44182132  0.52928986    -0.82960
C164        C  0.81062453  0.44591614  0.62691405     0.97800
C165        C  0.87254725  0.38919259  0.67803978     1.05240
O166        O  0.86769544  0.40257480  0.58978636    -1.11940
O167        O  0.92554281  0.38431616  0.55914620    -0.74380
O168        O  0.93179557  0.42119798  0.60454834    -0.77860
O169        O  0.80575938  0.41527788  0.61947278    -0.78550
C170        C  0.94211262  0.39753962  0.58426573     0.96710
O171        O  0.88053339  0.47176910  0.57331755    -0.76510
O172        O  0.86986779  0.34803288  0.53958665    -0.81700
C173        C  0.81009655  0.39186260  0.53494240     0.99330
C174        C  0.86562615  0.32439071  0.56093802     1.05250
O175        O  0.81290960  0.37049202  0.55935903    -0.77350
C176        C  0.88787955  0.46876608  0.54052475     1.03550
Fe177      Fe  0.12351801  0.19335041  0.11229990     1.65780
Fe178      Fe  0.12727152  0.14344396  0.04116371     1.73250
Fe179      Fe  0.17430276  0.13029030  0.11223927     1.54410
O180        O  0.19460441  0.17185713  0.13901008    -0.81080
O181        O  0.11459797  0.09726352  0.05874304    -0.79390
O182        O  0.16941889  0.21495363  0.11601632    -0.83590
O183        O  0.12810006  0.17112795  0.16354271    -0.78440
O184        O  0.20361382  0.14234904  0.07265123    -0.80220
O185        O  0.08088151  0.15946728  0.05108993    -0.82960
C186        C  0.13337237  0.14151495  0.17444111     0.97800
C187        C  0.19493233  0.20229598  0.12942153     1.05240
O188        O  0.14158291  0.15569949  0.08865147    -1.11940
O189        O  0.13976173  0.18867559  0.02141633    -0.74380
O190        O  0.11722289  0.22030474  0.06338412    -0.77860
O191        O  0.14477567  0.11961434  0.15378064    -0.78550
C192        C  0.12939416  0.21638252  0.03203352     0.96710
O193        O  0.07873268  0.16982120  0.10883672    -0.76510
O194        O  0.17251164  0.12658432  0.02682343    -0.81700
C195        C  0.13597724  0.07627957  0.06677539     0.99330
C196        C  0.19989743  0.13169001  0.04132719     1.05250
O197        O  0.16062205  0.08501060  0.08558815    -0.77350
C198        C  0.06641261  0.15661269  0.08084002     1.03550
Fe199      Fe  0.38423130  0.04237632  0.88627000     1.65780
Fe200      Fe  0.38195720  0.09092837  0.95988125     1.73250
Fe201      Fe  0.34029632  0.11228164  0.88772422     1.54410
O202        O  0.36300629  0.11260622  0.83922199    -0.81080
O203        O  0.33626704  0.08314674  0.97712497    -0.79390
O204        O  0.38861584  0.06442597  0.83608130    -0.83590
O205        O  0.33681180  0.02637673  0.87468860    -0.78440
O206        O  0.36954037  0.15371086  0.90329445    -0.80220
O207        O  0.39677471  0.04551024  0.97504438    -0.82960
C208        C  0.30985984  0.04149567  0.87110455     0.97800
C209        C  0.37919603  0.09139671  0.82223932     1.05240
O210        O  0.36864369  0.08129238  0.91063696    -1.11940
O211        O  0.42598010  0.10014135  0.93952347    -0.74380
O212        O  0.43169875  0.05967738  0.89789265    -0.77860
O213        O  0.30852093  0.07328540  0.87230120    -0.78550
C214        C  0.44219629  0.08493171  0.91590669     0.96710
O215        O  0.37965098  0.01325267  0.93187539    -0.76510
O216        O  0.37039152  0.13908596  0.95956855    -0.81700
C217        C  0.31380876  0.10127718  0.96464713     0.99330
C218        C  0.37653109  0.16000395  0.93606857     1.05250
O219        O  0.31503425  0.11417796  0.93372546    -0.77350
C220        C  0.38620942  0.01816118  0.96466021     1.03550
Fe221      Fe  0.11964101  0.44177918  0.88733910     1.65780
Fe222      Fe  0.12672546  0.39247655  0.95877866     1.73250
Fe223      Fe  0.17529888  0.38231707  0.88851262     1.54420
O224        O  0.14695693  0.36972801  0.84532255    -0.81080
O225        O  0.17253663  0.37898834  0.97401096    -0.79390
O226        O  0.12521599  0.41950803  0.83610376    -0.83590
O227        O  0.16412393  0.46670223  0.88271864    -0.78440
O228        O  0.16431333  0.33601815  0.91430556    -0.80220
O229        O  0.13602339  0.43852580  0.97859912    -0.82960
C230        C  0.19096983  0.45588455  0.87084761     0.97800
C231        C  0.13344826  0.39070355  0.82494300     1.05240
O232        O  0.14037521  0.40552640  0.91133161    -1.11940
O233        O  0.07907697  0.40459997  0.94973385    -0.74380
O234        O  0.07545479  0.41618493  0.89189843    -0.77860
O235        O  0.19352714  0.42516468  0.86285922    -0.78550
C236        C  0.06362887  0.40333158  0.92034873     0.96710
O237        O  0.11262205  0.46889115  0.93592712    -0.76510
O238        O  0.11761180  0.34540232  0.94070611    -0.81700
C239        C  0.19998571  0.38516704  0.96072944     0.99330
C240        C  0.14011002  0.32575540  0.93258349     1.05250
O241        O  0.20397410  0.39578005  0.92940727    -0.77350
C242        C  0.12494121  0.46576260  0.96740583     1.03550
Fe243      Fe  0.38744177  0.29229791  0.11137731     1.65780
Fe244      Fe  0.38418941  0.34485835  0.04158806     1.73250
Fe245      Fe  0.33449842  0.35374855  0.11143728     1.54410
O246        O  0.31776779  0.31224480  0.14020598    -0.81080
O247        O  0.38925803  0.39252294  0.05749124    -0.79390
O248        O  0.34132610  0.27003804  0.11384338    -0.83590
O249        O  0.38199213  0.31553826  0.16225211    -0.78440
O250        O  0.30564067  0.33798785  0.07244966    -0.80220
O251        O  0.43245954  0.33940463  0.05604907    -0.82960
C252        C  0.37586778  0.34503132  0.17349324     0.97800
C253        C  0.31655022  0.28242221  0.12894001     1.05240
O254        O  0.36949538  0.33050620  0.08815149    -1.11940
O255        O  0.38125947  0.29973820  0.01911934    -0.74380
O256        O  0.39545366  0.26577973  0.06265652    -0.77860
O257        O  0.36404472  0.36694296  0.15284981    -0.78550
C258        C  0.39008710  0.27166035  0.02929912     0.96710
O259        O  0.43312877  0.31401398  0.10963389    -0.76510
O260        O  0.33632350  0.35146495  0.02539158    -0.81700
C261        C  0.36547402  0.41050521  0.06397270     0.99330
C262        C  0.30904564  0.34564419  0.04012947     1.05250
O263        O  0.34227098  0.39959296  0.08316371    -0.77350
C264        C  0.44639691  0.33191759  0.08559185     1.03550
Fe265      Fe  0.12751414  0.04454230  0.38226842     1.65780
Fe266      Fe  0.12492394  0.09298294  0.45451261     1.73250
Fe267      Fe  0.17976230  0.10695780  0.39135288     1.54420
O268        O  0.20344538  0.06569087  0.36815929    -0.81080
O269        O  0.11344329  0.13745672  0.43303715    -0.79390
O270        O  0.17302975  0.02195872  0.38048068    -0.83590
O271        O  0.13495823  0.06816004  0.33260397    -0.78440
O272        O  0.20414180  0.09601083  0.43625770    -0.80220
O273        O  0.07962765  0.07640328  0.43978081    -0.82960
C274        C  0.14194754  0.09783742  0.32333259     0.97800
C275        C  0.20038749  0.03425918  0.37176054     1.05240
O276        O  0.14447456  0.08098222  0.40932475    -1.11940
O277        O  0.13576940  0.04804017  0.47608085    -0.74380
O278        O  0.11800165  0.01741163  0.43038405    -0.77860
O279        O  0.15573720  0.11753736  0.34508641    -0.78550
C280        C  0.12597437  0.02047084  0.46373114     0.96710
O281        O  0.08247969  0.06759926  0.38149264    -0.76510
O282        O  0.16761017  0.11283272  0.47508721    -0.81700
C283        C  0.13531805  0.15909197  0.43115642     0.99330
C284        C  0.19663667  0.11076555  0.46467738     1.05250
O285        O  0.16200678  0.15180759  0.41567948    -0.77350
C286        C  0.06731413  0.07829985  0.40863950     1.03550
Fe287      Fe  0.38419676  0.18764926  0.61662254     1.65780
Fe288      Fe  0.38288999  0.14757766  0.53813280     1.73250
Fe289      Fe  0.33480434  0.12213341  0.60306037     1.54410
O290        O  0.35121193  0.11978949  0.65436908    -0.81080
O291        O  0.33666502  0.16174626  0.52157983    -0.79390
O292        O  0.38826382  0.15858250  0.66270491    -0.83590
O293        O  0.33750622  0.20370700  0.63162242    -0.78440
O294        O  0.36113019  0.07978430  0.58875894    -0.80220
O295        O  0.40086979  0.19363992  0.53149439    -0.82960
C296        C  0.30883804  0.19220643  0.62742111     0.97800
C297        C  0.37192294  0.13397010  0.67408443     1.05240
O298        O  0.36839228  0.15169704  0.58746385    -1.11940
O299        O  0.42658159  0.13471165  0.55748291    -0.74380
O300        O  0.43195805  0.17186712  0.60273820    -0.77860
O301        O  0.30439226  0.16254406  0.61591685    -0.78550
C302        C  0.44317030  0.14894035  0.58194664     0.96710
O303        O  0.37824592  0.22102354  0.57402614    -0.76510
O304        O  0.37156760  0.09902910  0.53429610    -0.81700
C305        C  0.31272301  0.14451091  0.53229804     0.99330
C306        C  0.36717760  0.07512447  0.55549067     1.05250
O307        O  0.31736346  0.12051694  0.55276171    -0.77350
C308        C  0.38668552  0.21900362  0.54144386     1.03550
Fe309      Fe  0.12272092  0.29320690  0.61587800     1.65780
Fe310      Fe  0.12346244  0.33772809  0.54082909     1.73250
Fe311      Fe  0.17493285  0.35609937  0.60707130     1.54420
O312        O  0.14786431  0.36765038  0.65110842    -0.81080
O313        O  0.16714487  0.35513244  0.52177550    -0.79390
O314        O  0.12995253  0.31787130  0.66574276    -0.83590
O315        O  0.16768441  0.27114374  0.61959501    -0.78440
O316        O  0.15787609  0.39961637  0.57965666    -0.80220
O317        O  0.13613655  0.29214228  0.52410179    -0.82960
C318        C  0.19520605  0.28339817  0.62757521     0.97800
C319        C  0.13686338  0.34781065  0.67435975     1.05240
O320        O  0.14087136  0.32870086  0.58789472    -1.11940
O321        O  0.07747624  0.32168464  0.55400643    -0.74380
O322        O  0.07785056  0.31668262  0.61272299    -0.77860
O323        O  0.19837669  0.31489522  0.63193012    -0.78550
C324        C  0.06399919  0.32645765  0.58404322     0.96710
O325        O  0.11476323  0.26319528  0.56912054    -0.76510
O326        O  0.11099866  0.38389993  0.55659254    -0.81700
C327        C  0.19575198  0.35480506  0.53362459     0.99330
C328        C  0.13283420  0.40544108  0.56027190     1.05250
O329        O  0.20302190  0.34608432  0.56498225    -0.77350
C330        C  0.12660784  0.26506198  0.53731973     1.03550
Fe331      Fe  0.38849433  0.43791117  0.38331284     1.65780
Fe332      Fe  0.38324421  0.39069964  0.45696830     1.73250
Fe333      Fe  0.33374126  0.37786835  0.38722528     1.54420
O334        O  0.31722685  0.41793914  0.35587472    -0.81080
O335        O  0.38871481  0.34293513  0.44277719    -0.79390
O336        O  0.34327716  0.46110161  0.37804989    -0.83590
O337        O  0.38247330  0.41200067  0.33450938    -0.78440
O338        O  0.30479282  0.39532902  0.42465253    -0.80220
O339        O  0.43158089  0.39611440  0.44439087    -0.82960
C340        C  0.37636649  0.38191871  0.32553321     0.97800
C341        C  0.31750423  0.44846597  0.36491718     1.05240
O342        O  0.36889847  0.40232281  0.40935354    -1.11940
O343        O  0.37941476  0.43687240  0.47576242    -0.74380
O344        O  0.39604651  0.46745688  0.42973688    -0.77860
O345        O  0.36371410  0.36199591  0.34777267    -0.78550
C346        C  0.38781788  0.46415737  0.46266408     0.96710
O347        O  0.43354707  0.41479322  0.38805791    -0.76510
O348        O  0.33534929  0.38419656  0.47249156    -0.81700
C349        C  0.36420006  0.32506415  0.43912976     0.99330
C350        C  0.30809091  0.38872230  0.45725253     1.05250
O351        O  0.34107114  0.33419622  0.41882692    -0.77350
C352        C  0.44644249  0.39993022  0.41477185     1.03550
C353        C  0.22157293  0.36669003  0.51119858    -0.04740
C354        C  0.24062878  0.39370960  0.52317121    -0.01860
C355        C  0.26916311  0.40149502  0.50520564     0.03130
C356        C  0.27841889  0.38186537  0.47599901    -0.04740
C357        C  0.25839826  0.35589575  0.46300877    -0.01850
C358        C  0.22926037  0.34919988  0.47995768     0.03120
C359        C  0.23058363  0.41389927  0.55337152     0.37770
C360        C  0.26808510  0.33494401  0.43321078     0.37760
C361        C  0.20750272  0.32414229  0.46551984     0.36190
C362        C  0.28892655  0.42944461  0.51653572     0.36190
N363        N  0.19005416  0.30463525  0.45335726    -0.38630
N364        N  0.30471995  0.45174906  0.52539402    -0.38630
N365        N  0.27496218  0.31777021  0.40956215    -0.38080
N366        N  0.22281358  0.43038522  0.57723922    -0.38080
C367        C  0.27939987  0.21482954  0.63388465    -0.04740
C368        C  0.24751360  0.20327086  0.62774927    -0.01860
C369        C  0.22139122  0.22543446  0.62271317     0.03130
C370        C  0.22426373  0.25979482  0.63141069    -0.04740
C371        C  0.25518804  0.27058733  0.64387678    -0.01850
C372        C  0.28229558  0.24863970  0.64461839     0.03120
C373        C  0.23953289  0.16893522  0.63427172     0.37770
C374        C  0.25960439  0.30429931  0.65648011     0.37760
C375        C  0.31243083  0.26046626  0.65985975     0.36190
C376        C  0.19179934  0.21181376  0.60763933     0.36190
N377        N  0.33630078  0.26989255  0.67252875    -0.38630
N378        N  0.16852775  0.20071395  0.59515050    -0.38630
N379        N  0.26332676  0.33113160  0.66676463    -0.38080
N380        N  0.23112093  0.14253343  0.64193860    -0.38080
C381        C  0.36277573  0.29486895  0.46197661    -0.04740
C382        C  0.35228613  0.29731806  0.49811388    -0.01860
C383        C  0.36093485  0.27337263  0.52386053     0.03130
C384        C  0.37897877  0.24530422  0.51397723    -0.04740
C385        C  0.38732111  0.24153892  0.47685532    -0.01850
C386        C  0.37996778  0.26658697  0.45155801     0.03120
C387        C  0.33309014  0.32457979  0.51089501     0.37770
C388        C  0.40347364  0.21215891  0.46370042     0.37760
C389        C  0.39103467  0.26379226  0.41472373     0.36190
C390        C  0.35140664  0.27871040  0.56094453     0.36190
N391        N  0.39999356  0.26158836  0.38543042    -0.38630
N392        N  0.34371269  0.28374305  0.59025033    -0.38630
N393        N  0.41605084  0.18879273  0.45258583    -0.38150
N394        N  0.31786103  0.34400840  0.52597809    -0.38080
C395        C  0.38463662  0.49297279  0.48702859    -0.04740
C396        C  0.39576075  0.49145430  0.52324436    -0.01860
C397        C  0.38803140  0.01693875  0.54791518     0.03130
C398        C  0.36720779  0.04248916  0.53727126    -0.04740
C399        C  0.35294851  0.04122043  0.50256758    -0.01850
C400        C  0.36366162  0.01847574  0.47692617     0.03120
C401        C  0.41552245  0.46402507  0.53508193     0.37770
C402        C  0.32730902  0.06382216  0.49254927     0.37760
C403        C  0.35271190  0.02168383  0.44009621     0.36190
C404        C  0.40177545  0.51718049  0.58376819     0.36190
N405        N  0.34414478  0.02559591  0.41084791    -0.38630
N406        N  0.41260925  0.51732985  0.61247304    -0.38630
N407        N  0.30668015  0.08102984  0.48334734    -0.38080
N408        N  0.43095778  0.44201131  0.54489498    -0.38080
C409        C  0.22987868  0.01144219  0.36620575    -0.04740
C410        C  0.26007189  0.02372919  0.35318415    -0.01860
C411        C  0.28789989  0.50301225  0.35103344     0.03130
C412        C  0.28683792  0.46932541  0.36156350    -0.04740
C413        C  0.25622000  0.45621813  0.37104573    -0.01850
C414        C  0.22864771  0.47694277  0.37455257     0.03120
C415        C  0.26311144  0.05780173  0.34140379     0.37770
C416        C  0.25228454  0.42090878  0.37667987     0.37760
C417        C  0.19925427  0.46194007  0.38786504     0.36190
C418        C  0.31739527  0.01599911  0.33562736     0.36190
N419        N  0.17623321  0.44926015  0.39870830    -0.38630
N420        N  0.34089266  0.02628508  0.32316243    -0.38630
N421        N  0.24803588  0.39278047  0.38041634    -0.38080
N422        N  0.26578405  0.08495339  0.33188051    -0.38080
C423        C  0.13155656  0.18982625  0.45425311    -0.04740
C424        C  0.10201320  0.19602734  0.47275185    -0.01860
C425        C  0.10071857  0.21905618  0.50150171     0.03130
C426        C  0.12873388  0.23585227  0.51290088    -0.04740
C427        C  0.15792745  0.23005315  0.49460723    -0.01850
C428        C  0.15877271  0.20924951  0.46405491     0.03120
C429        C  0.07221409  0.17989153  0.46180395     0.37770
C430        C  0.18755613  0.24511250  0.50789417     0.37760
C431        C  0.18681467  0.21076595  0.44117579     0.36190
C432        C  0.07024355  0.22615561  0.51880792     0.36190
N433        N  0.20891970  0.21388409  0.42266445    -0.38630
N434        N  0.04596290  0.23185837  0.53260593    -0.38630
N435        N  0.21115517  0.25683313  0.51884294    -0.38080
N436        N  0.04822886  0.16720752  0.45355037    -0.38080
C437        C  0.13070586  0.43529551  0.53644184    -0.04740
C438        C  0.12507930  0.43097435  0.49897691    -0.01860
C439        C  0.12084335  0.45842991  0.47600141     0.03130
C440        C  0.12456095  0.49113450  0.48920800    -0.04740
C441        C  0.12803903  0.99534108  0.52722590    -0.01850
C442        C  0.13191318  0.46766703  0.55034241     0.03120
C443        C  0.12457119  0.39820190  0.48286181     0.37770
C444        C  0.12441126  0.02772505  0.54352653     0.37760
C445        C  0.13608716  0.47245516  0.58871967     0.36190
C446        C  0.11099280  0.45235377  0.43905996     0.36190
N447        N  0.13945264  0.47618557  0.61934361    -0.38630
N448        N  0.10263485  0.44721355  0.40985375    -0.38630
N449        N  0.12063570  0.05329336  0.55690342    -0.38080
N450        N  0.12387084  0.37271626  0.46855361    -0.38080
C451        C  0.22226636  0.12794552  0.48419938    -0.04740
C452        C  0.22472717  0.12390669  0.52133906    -0.01860
C453        C  0.25405249  0.13092215  0.53809912     0.03130
C454        C  0.27941760  0.14710819  0.51856535    -0.04740
C455        C  0.27376231  0.15752257  0.48306767    -0.01850
C456        C  0.24623625  0.14574001  0.46506373     0.03120
C457        C  0.19914689  0.10775417  0.54147860     0.37770
C458        C  0.29770061  0.17664026  0.46361726     0.37760
C459        C  0.24404828  0.14963639  0.42633063     0.36190
C460        C  0.25942853  0.11483896  0.57259075     0.36190
N461        N  0.24257292  0.15224648  0.39540379    -0.38630
N462        N  0.26454582  0.09968989  0.59836025    -0.38630
N463        N  0.31665860  0.19196122  0.44800447    -0.38080
N464        N  0.17919440  0.09490347  0.55805918    -0.38080
C465        C  0.38154471  0.37064868  0.28726206    -0.04740
C466        C  0.37316954  0.33792277  0.27596551    -0.01860
C467        C  0.37270481  0.32939114  0.23909541     0.03130
C468        C  0.38007244  0.35331977  0.21253897    -0.04740
C469        C  0.38876870  0.38572870  0.22383947    -0.01850
C470        C  0.39161344  0.39358265  0.26065055     0.03120
C471        C  0.36411717  0.31256269  0.30172116     0.37770
C472        C  0.39228587  0.41258002  0.19836905     0.37760
C473        C  0.40477712  0.42584883  0.27040892     0.36190
C474        C  0.36137814  0.29658867  0.22865303     0.36190
N475        N  0.41544677  0.45152713  0.27784870    -0.38630
N476        N  0.35209260  0.27054647  0.22046371    -0.38630
N477        N  0.39400775  0.43561309  0.18004827    -0.38080
N478        N  0.35656987  0.29221244  0.32191681    -0.38080
C479        C  0.13029293  0.38206629  0.78604788    -0.04740
C480        C  0.11355938  0.35328204  0.77486014    -0.01860
C481        C  0.11450328  0.34269911  0.73847969     0.03130
C482        C  0.13330126  0.36019242  0.71273762    -0.04740
C483        C  0.14975427  0.38956063  0.72445958    -0.01850
C484        C  0.14775126  0.40046662  0.76050513     0.03120
C485        C  0.09519237  0.33452225  0.80102143     0.37770
C486        C  0.17035915  0.40834833  0.70038746     0.37760
C487        C  0.16547107  0.42988840  0.77180841     0.36190
C488        C  0.09579648  0.31379148  0.72800679     0.36190
N489        N  0.17963400  0.45332708  0.78062029    -0.38630
N490        N  0.08079265  0.29069726  0.71986807    -0.38630
N491        N  0.18689232  0.42347199  0.68148346    -0.38080
N492        N  0.08060558  0.31961265  0.82197834    -0.38080
C493        C  0.22830579  0.37635978  0.98090327    -0.04740
C494        C  0.25035643  0.35399851  0.96551395    -0.01860
C495        C  0.27361117  0.33949217  0.98735080     0.03130
C496        C  0.27949113  0.35307721  0.02133708    -0.04740
C497        C  0.25920757  0.37794143  0.03564988    -0.01850
C498        C  0.23220558  0.38784842  0.01621128     0.03120
C499        C  0.25005750  0.34683829  0.92725767     0.37770
C500        C  0.26703813  0.39510109  0.06894946     0.37760
C501        C  0.20970560  0.41128642  0.03168168     0.36190
C502        C  0.28990616  0.30974062  0.97584691     0.36190
N503        N  0.19183463  0.42978722  0.04436747    -0.38630
N504        N  0.30130081  0.28496326  0.96705795    -0.38630
N505        N  0.27293364  0.40926317  0.09525396    -0.38080
N506        N  0.25000651  0.34151338  0.89668978    -0.38080
C507        C  0.38251193  0.09683484  0.78328101    -0.04740
C508        C  0.40520223  0.11939234  0.76957526    -0.01860
C509        C  0.40139897  0.13255442  0.73468104     0.03130
C510        C  0.37630777  0.12075888  0.71168536    -0.04740
C511        C  0.35492509  0.09581669  0.72528563    -0.01850
C512        C  0.35798824  0.08445663  0.76081137     0.03120
C513        C  0.43355012  0.12780182  0.79051295     0.37770
C514        C  0.32825080  0.08244543  0.70419065     0.37760
C515        C  0.33480244  0.06064739  0.77477883     0.36190
C516        C  0.42288737  0.15910620  0.72369074     0.36190
N517        N  0.31606485  0.04176164  0.78533163    -0.38630
N518        N  0.44004757  0.18040058  0.71530335    -0.38630
N519        N  0.30687015  0.07165513  0.68777057    -0.38080
N520        N  0.45724874  0.13409070  0.80554892    -0.38080
C521        C  0.27851743  0.02105020  0.86701059    -0.04740
C522        C  0.27837169  0.48876365  0.85165226    -0.01860
C523        C  0.24997197  0.46847261  0.85125741     0.03130
C524        C  0.22045256  0.47930805  0.86696668    -0.04740
C525        C  0.22035710  0.51224312  0.88099482    -0.01850
C526        C  0.24862303  0.03267609  0.88067682     0.03120
C527        C  0.30755294  0.47612276  0.83540418     0.37770
C528        C  0.19131850  0.02564871  0.89689087     0.37760
C529        C  0.24652729  0.06576072  0.89561233     0.36190
C530        C  0.25172706  0.43624900  0.83409208     0.36190
N531        N  0.24412824  0.09221124  0.90724414    -0.38630
N532        N  0.25336302  0.41060645  0.82026766    -0.38630
N533        N  0.16835634  0.03660475  0.90971098    -0.38080
N534        N  0.33075695  0.46593932  0.82238945    -0.38080
C535        C  0.36449164  0.44284412  0.04440844    -0.04740
C536        C  0.34701208  0.44532218  0.01165071    -0.01860
C537        C  0.35223004  0.47176829  0.98788246     0.03130
C538        C  0.37928088  0.49244249  0.99223473    -0.04740
C539        C  0.39701304  0.49055511  0.02478290    -0.01850
C540        C  0.38803588  0.46753521  0.05164137     0.03120
C541        C  0.32697833  0.41916847  0.99772589     0.37770
C542        C  0.42509611  0.01153514  0.03060090     0.37760
C543        C  0.40250964  0.47062996  0.08688879     0.36190
C544        C  0.32930868  0.47737017  0.95880009     0.36190
N545        N  0.41424692  0.47550700  0.11466646    -0.38630
N546        N  0.31064095  0.48155049  0.93610463    -0.38630
N547        N  0.44760145  0.02808011  0.03524842    -0.38080
N548        N  0.31173258  0.40112458  0.98052884    -0.38080
C549        C  0.38986825  0.19174265  0.95072241    -0.04740
C550        C  0.37657705  0.22244717  0.94149344    -0.01860
C551        C  0.38030704  0.24982258  0.96505923     0.03130
C552        C  0.39354045  0.24546942  0.00043882    -0.04740
C553        C  0.41081756  0.21613151  0.00704754    -0.01850
C554        C  0.41017039  0.19014295  0.98165632     0.03120
C555        C  0.35766057  0.22553425  0.90884314     0.37770
C556        C  0.43019642  0.21270702  0.03940884     0.37760
C557        C  0.42983821  0.16121014  0.98855688     0.36190
C558        C  0.37182039  0.28231838  0.95157760     0.36190
N559        N  0.44627432  0.13905970  0.99556926    -0.38630
N560        N  0.36564730  0.30824657  0.94031845    -0.38630
N561        N  0.44575288  0.20986787  0.06509622    -0.38080
N562        N  0.34244078  0.22798865  0.88286487    -0.38080
C563        C  0.13478090  0.11003823  0.28572159    -0.04740
C564        C  0.13883745  0.14421581  0.27674101    -0.01860
C565        C  0.13700003  0.15487425  0.24066949     0.03130
C566        C  0.12897968  0.13226025  0.21301435    -0.04740
C567        C  0.12107614  0.09920178  0.22230925    -0.01850
C568        C  0.12478892  0.08789854  0.25799797     0.03120
C569        C  0.14515325  0.16913417  0.30416599     0.37770
C570        C  0.10930293  0.07638196  0.19491615     0.37760
C571        C  0.11916172  0.05301788  0.26520781     0.36190
C572        C  0.14548551  0.18892096  0.23209292     0.36190
N573        N  0.11475059  0.02513314  0.27061652    -0.38630
N574        N  0.15244353  0.21600922  0.22537551    -0.38630
N575        N  0.09998562  0.05819655  0.17310189    -0.38080
N576        N  0.15016506  0.18915431  0.32581530    -0.38080
C577        C  0.28536865  0.26226678  0.13285440    -0.04740
C578        C  0.25466514  0.27737852  0.12899239    -0.01860
C579        C  0.22565436  0.25828328  0.12828507     0.03130
C580        C  0.22594318  0.22328519  0.13326557    -0.04740
C581        C  0.25665786  0.20860323  0.14011899    -0.01850
C582        C  0.28576044  0.22770667  0.13934609     0.03120
C583        C  0.25226610  0.31302779  0.12579682     0.37770
C584        C  0.25904116  0.17360675  0.14820930     0.37760
C585        C  0.31627058  0.21171765  0.14685831     0.36190
C586        C  0.19545357  0.27547029  0.12234283     0.36190
N587        N  0.34058493  0.19899402  0.15304702    -0.38630
N588        N  0.17155157  0.28939822  0.11733176    -0.38630
N589        N  0.26133433  0.14579190  0.15516321    -0.38080
N590        N  0.24947359  0.34145796  0.12401774    -0.38080
C591        C  0.13351020  0.04289004  0.04852758    -0.04740
C592        C  0.16101229  0.02745951  0.03383178    -0.01860
C593        C  0.15794306  0.50450154  0.00524975     0.03130
C594        C  0.12723750  0.49429579  0.99285924    -0.04740
C595        C  0.09965891  0.00650550  0.01041683    -0.01850
C596        C  0.10286366  0.03016316  0.03846415     0.03120
C597        C  0.19225511  0.03167409  0.05034259     0.37770
C598        C  0.06807446  0.49393386  0.00044311     0.37760
C599        C  0.07516514  0.03852766  0.06006612     0.36190
C600        C  0.18668191  0.49134043  0.98834362     0.36190
N601        N  0.05351746  0.04424050  0.07846777    -0.38630
N602        N  0.20953843  0.48090507  0.97479819    -0.38630
N603        N  0.04287879  0.48387172  0.99244020    -0.38080
N604        N  0.21750033  0.03202929  0.06351648    -0.38080
C605        C  0.13189220  0.24432385  0.00592009    -0.04740
C606        C  0.16270013  0.25609783  0.99599296    -0.01860
C607        C  0.16624822  0.27843046  0.96696947     0.03130
C608        C  0.13892222  0.29188802  0.94969716    -0.04740
C609        C  0.10873034  0.27686793  0.95653645    -0.01850
C610        C  0.10504046  0.25363357  0.98481287     0.03120
C611        C  0.19100077  0.24472760  0.01539250     0.37770
C612        C  0.08278314  0.28249905  0.93121539     0.37760
C613        C  0.07396385  0.23835660  0.99140753     0.36190
C614        C  0.19769711  0.28250734  0.95133321     0.36190
N615        N  0.04933925  0.22583500  0.99693607    -0.38630
N616        N  0.22294548  0.28248371  0.93842102    -0.38630
N617        N  0.06305515  0.28664859  0.90966002    -0.38080
N618        N  0.21348906  0.23563804  0.03092775    -0.38080
C619        C  0.28564683  0.11017567  0.98617961    -0.04740
C620        C  0.26458440  0.13569033  0.97361089    -0.01860
C621        C  0.23475548  0.13982779  0.98963634     0.03130
C622        C  0.22885693  0.12407617  0.02225241    -0.04740
C623        C  0.25239518  0.10400942  0.03881388    -0.01850
C624        C  0.27940765  0.09453771  0.01935009     0.03120
C625        C  0.27357882  0.15937228  0.94585939     0.37770
C626        C  0.24954972  0.09397187  0.07616783     0.37760
C627        C  0.30038452  0.06922597  0.03413599     0.36190
C628        C  0.21115450  0.16208987  0.97381704     0.36190
N629        N  0.31687044  0.04895429  0.04608024    -0.38630
N630        N  0.19248268  0.17963228  0.96083896    -0.38630
N631        N  0.24751143  0.08624668  0.10600456    -0.38080
N632        N  0.28062826  0.17843261  0.92402638    -0.38080
C633        C  0.97493956  0.38367084  0.58898214    -0.04740
C634        C  0.98018560  0.35724804  0.61315953    -0.01860
C635        C  0.00953753  0.33938946  0.61273428     0.03130
C636        C  0.03248214  0.34505974  0.58524721    -0.04740
C637        C  0.02540059  0.36980166  0.55909304    -0.01850
C638        C  0.99806760  0.39020636  0.56247465     0.03120
C639        C  0.95397890  0.34600073  0.63575249     0.37770
C640        C  0.04418791  0.37307113  0.52665918     0.37760
C641        C  0.99259505  0.41692139  0.53704254     0.36190
C642        C  0.01463763  0.31337426  0.63891325     0.36190
N643        N  0.98825077  0.43824150  0.51687614    -0.38630
N644        N  0.01856623  0.29264985  0.65989677    -0.38630
N645        N  0.05766604  0.37553720  0.49969445    -0.38080
N646        N  0.93280742  0.33634211  0.65299328    -0.38080
C647        C  0.53513923  0.34186866  0.41363509    -0.04740
C648        C  0.52571731  0.36084707  0.44423986    -0.01860
C649        C  0.49936384  0.38289750  0.44259562     0.03130
C650        C  0.47935199  0.38436336  0.41189047    -0.04740
C651        C  0.48860914  0.36606723  0.38109778    -0.01850
C652        C  0.51644647  0.34556501  0.38170456     0.03120
C653        C  0.54193691  0.35747471  0.47859566     0.37770
C654        C  0.46907546  0.36736765  0.34874860     0.37760
C655        C  0.52485320  0.32753755  0.34936889     0.36190
C656        C  0.49329114  0.40491104  0.47272684     0.36190
N657        N  0.53140987  0.31330394  0.32341551    -0.38630
N658        N  0.48880121  0.42262050  0.49663643    -0.38630
N659        N  0.45386972  0.36823347  0.32264589    -0.38080
N660        N  0.55379368  0.35476009  0.50660188    -0.38080
C661        C  0.72173725  0.37261876  0.48265688    -0.04740
C662        C  0.72445594  0.36716136  0.51965813    -0.01860
C663        C  0.75117187  0.37982082  0.53807772     0.03130
C664        C  0.77759044  0.39345805  0.51850619    -0.04740
C665        C  0.77298537  0.40235284  0.48227212    -0.01850
C666        C  0.74436663  0.39299799  0.46475071     0.03120
C667        C  0.70151804  0.34603667  0.53831674     0.37770
C668        C  0.79749822  0.41992474  0.46229204     0.37760
C669        C  0.73860555  0.40366798  0.42800483     0.36190
C670        C  0.75161683  0.37695325  0.57701343     0.36190
N671        N  0.73398908  0.41215376  0.39875827    -0.38630
N672        N  0.75114285  0.37393456  0.60791861    -0.38630
N673        N  0.81617762  0.43420705  0.44527140    -0.38080
N674        N  0.68362589  0.32883235  0.55318285    -0.38080
C675        C  0.47726611  0.13784755  0.58410489    -0.04740
C676        C  0.49547833  0.13818635  0.55222754    -0.01860
C677        C  0.52351150  0.11896931  0.54921269     0.03130
C678        C  0.53643487  0.10232140  0.57965442    -0.04740
C679        C  0.51907096  0.10354603  0.61235671    -0.01850
C680        C  0.48894692  0.11993274  0.61398636     0.03120
C681        C  0.48502311  0.15816540  0.52195374     0.37770
C682        C  0.53202217  0.08832199  0.64454548     0.37760
C683        C  0.46904825  0.11612845  0.64551618     0.36190
C684        C  0.53816002  0.11562112  0.51399791     0.36190
N685        N  0.45329792  0.11200171  0.67065406    -0.38630
N686        N  0.54968510  0.11293783  0.48589570    -0.38630
N687        N  0.54222696  0.07636416  0.67041136    -0.38080
N688        N  0.47700980  0.17425060  0.49786088    -0.38080
C689        C  0.72479476  0.00961669  0.63109041    -0.04740
C690        C  0.73414484  0.49326359  0.59916629    -0.01860
C691        C  0.76323583  0.47503815  0.59763790     0.03130
C692        C  0.78169261  0.46878899  0.62894692    -0.04740
C693        C  0.77282887  0.48558168  0.66086829    -0.01850
C694        C  0.74518972  0.00665536  0.66159616     0.03120
C695        C  0.71476114  0.49670171  0.56683273     0.37770
C696        C  0.79283487  0.48211339  0.69257684     0.37760
C697        C  0.73812024  0.02579968  0.69347692     0.36190
C698        C  0.77687833  0.46805237  0.56279101     0.36190
N699        N  0.73270690  0.04140064  0.71882786    -0.38630
N700        N  0.78796401  0.46510366  0.53454683    -0.38630
N701        N  0.80903656  0.97943407  0.71777542    -0.38080
N702        N  0.69950103  0.49904560  0.54087867    -0.38080
C703        C  0.62050170  0.48497422  0.50914369    -0.04740
C704        C  0.62012481  0.49023452  0.47106494    -0.01860
C705        C  0.62425270  0.46346261  0.44680965     0.03130
C706        C  0.62638726  0.43089521  0.45967700    -0.04740
C707        C  0.62400465  0.42533210  0.49732457    -0.01850
C708        C  0.62273919  0.45200950  0.52174040     0.03120
C709        C  0.61487275  0.02289001  0.45601151     0.37770
C710        C  0.62234755  0.39212328  0.51205406     0.37760
C711        C  0.62352035  0.44478232  0.56001676     0.36190
C712        C  0.62464162  0.46920517  0.40834884     0.36190
N713        N  0.62451198  0.43875250  0.59039298    -0.38630
N714        N  0.62484069  0.47373742  0.37766375    -0.38630
N715        N  0.62084016  0.36631899  0.52547387    -0.38080
N716        N  0.61014046  0.04873198  0.44370662    -0.38080
C717        C  0.63561989  0.23612568  0.48912159    -0.04740
C718        C  0.60930781  0.22436267  0.50945038    -0.01860
C719        C  0.61441170  0.20158171  0.53774532     0.03130
C720        C  0.64569646  0.18984486  0.54540730    -0.04740
C721        C  0.67212721  0.20307233  0.52637536    -0.01850
C722        C  0.66716595  0.22637065  0.49872217     0.03120
C723        C  0.57704433  0.23589279  0.50141042     0.37770
C724        C  0.70439070  0.19117361  0.53399548     0.37760
C725        C  0.69461772  0.23997333  0.47966501     0.36190
C726        C  0.58741257  0.18958248  0.55865888     0.36190
N727        N  0.71652568  0.25092637  0.46459970    -0.38630
N728        N  0.56594016  0.18043891  0.57575960    -0.38630
N729        N  0.73008096  0.18158969  0.54001428    -0.38080
N730        N  0.55130006  0.24507604  0.49494193    -0.38080
C731        C  0.97793732  0.13360477  0.41236801    -0.04740
C732        C  0.98405064  0.10606095  0.43533927    -0.01860
C733        C  0.01095121  0.08545259  0.43010608     0.03130
C734        C  0.03485147  0.09399470  0.40517684    -0.04740
C735        C  0.02972805  0.12175258  0.38263066    -0.01850
C736        C  0.00107589  0.14083125  0.38547726     0.03120
C737        C  0.96461248  0.09936232  0.46656912     0.37770
C738        C  0.05489915  0.13224365  0.35825404     0.37760
C739        C  0.99697662  0.16960434  0.36270882     0.36190
C740        C  0.01432749  0.05521949  0.45100148     0.36190
N741        N  0.99386365  0.19268060  0.34464422    -0.38630
N742        N  0.01695804  0.03104360  0.46739696    -0.38630
N743        N  0.07496487  0.14099548  0.33894948    -0.38080
N744        N  0.95114962  0.09320831  0.49281342    -0.38080
C745        C  0.78483174  0.21946195  0.37023780    -0.04740
C746        C  0.75837704  0.21197982  0.34695896    -0.01860
C747        C  0.72963598  0.23157771  0.34756020     0.03130
C748        C  0.72823037  0.26150658  0.36771487    -0.04740
C749        C  0.75535821  0.26910248  0.38956570    -0.01850
C750        C  0.78037255  0.24587885  0.39448847     0.03120
C751        C  0.75956337  0.18314709  0.32381065     0.37770
C752        C  0.75845872  0.30050067  0.40785516     0.37760
C753        C  0.79495299  0.24365679  0.42974679     0.36190
C754        C  0.70151031  0.22051528  0.32765217     0.36190
N755        N  0.80439962  0.24020672  0.45876691    -0.38630
N756        N  0.67905610  0.21101600  0.31214033    -0.38630
N757        N  0.76344456  0.32554208  0.42195788    -0.38080
N758        N  0.76019873  0.16004137  0.30537884    -0.38080
C759        C  0.87517619  0.04895019  0.46380294    -0.04740
C760        C  0.88039552  0.05565751  0.50095964    -0.01860
C761        C  0.88356257  0.02971665  0.52592973     0.03130
C762        C  0.88412919  0.49654223  0.51407243    -0.04740
C763        C  0.88075204  0.49000759  0.47638643    -0.01850
C764        C  0.87482080  0.01600687  0.45187125     0.03120
C765        C  0.88453397  0.08922520  0.51419937     0.37770
C766        C  0.88464251  0.45688094  0.46188865     0.37760
C767        C  0.87010642  0.50903473  0.41392387     0.36190
C768        C  0.88809943  0.03774623  0.56372022     0.36190
N769        N  0.86628580  0.50356907  0.38366752    -0.38630
N770        N  0.89164950  0.04435371  0.59375382    -0.38630
N771        N  0.88831858  0.43063733  0.45005961    -0.38080
N772        N  0.88927331  0.11539897  0.52590679    -0.38080
C773        C  0.88648484  0.24296796  0.49187581    -0.04740
C774        C  0.86868016  0.27043906  0.48073625    -0.01860
C775        C  0.85502004  0.29118893  0.50655555     0.03130
C776        C  0.86694029  0.29164533  0.54243518    -0.04740
C777        C  0.88789697  0.26614197  0.55329307    -0.01850
C778        C  0.89597869  0.24063014  0.52857889     0.03120
C779        C  0.86419409  0.27760642  0.44281046     0.37770
C780        C  0.90169899  0.26655649  0.58907292     0.37760
C781        C  0.91569979  0.21312588  0.54026624     0.36190
C782        C  0.82876773  0.31256413  0.49568333     0.36190
N783        N  0.93149645  0.19116818  0.54951088    -0.38630
N784        N  0.80749417  0.32882619  0.48636296    -0.38630
N785        N  0.91288805  0.26675792  0.61760420    -0.38080
N786        N  0.86089876  0.28374235  0.41265803    -0.38080
C787        C  0.78551104  0.11339284  0.48145599    -0.04740
C788        C  0.75971422  0.09953231  0.46092511    -0.01860
C789        C  0.73291700  0.08601469  0.47845377     0.03130
C790        C  0.73303568  0.08401947  0.51618123    -0.04740
C791        C  0.76163652  0.09105808  0.53551930    -0.01850
C792        C  0.78640331  0.10873009  0.51893986     0.03120
C793        C  0.76001702  0.09944112  0.42184783     0.37770
C794        C  0.76497073  0.08186725  0.57306545     0.37760
C795        C  0.81066615  0.12476661  0.54127645     0.36190
C796        C  0.70488969  0.07601126  0.45755001     0.36190
N797        N  0.82921712  0.13802115  0.55970809    -0.38630
N798        N  0.68272884  0.06820900  0.44050438    -0.38630
N799        N  0.76848221  0.07466042  0.60289041    -0.38080
N800        N  0.76008287  0.09939815  0.39075047    -0.38080
C801        C  0.53451843  0.38776816  0.09969491    -0.04740
C802        C  0.50445746  0.40351605  0.09939585    -0.01860
C803        C  0.47612619  0.38413646  0.09924047     0.03130
C804        C  0.47724100  0.34958461  0.09393260    -0.04740
C805        C  0.50698278  0.33357112  0.09801241    -0.01850
C806        C  0.53528102  0.35276745  0.10361397     0.03120
C807        C  0.50262319  0.43932036  0.10020321     0.37770
C808        C  0.50843677  0.29776512  0.09683523     0.37760
C809        C  0.56387576  0.33689488  0.11751532     0.36190
C810        C  0.44596842  0.39829510  0.10974894     0.36190
N811        N  0.58597770  0.32385380  0.13008213    -0.38630
N812        N  0.42131601  0.40690111  0.12019449    -0.38630
N813        N  0.50962947  0.26914775  0.09576720    -0.38080
N814        N  0.50110050  0.46792709  0.10090133    -0.38080
C815        C  0.63516701  0.37458501  0.21149770    -0.04740
C816        C  0.62020553  0.39389091  0.23870925    -0.01860
C817        C  0.61856746  0.38229301  0.27467291     0.03130
C818        C  0.63200153  0.35142887  0.28442737    -0.04740
C819        C  0.64559478  0.33152526  0.25740208    -0.01850
C820        C  0.64677706  0.34248806  0.22139612     0.03120
C821        C  0.60622697  0.42580060  0.23026173     0.37770
C822        C  0.66070000  0.30038510  0.26688748     0.37760
C823        C  0.66101448  0.32016677  0.19527283     0.36190
C824        C  0.60268913  0.40216437  0.30180698     0.36190
N825        N  0.67233480  0.30211134  0.17476085    -0.38630
N826        N  0.58996238  0.41791345  0.32346886    -0.38630
N827        N  0.67308532  0.27566068  0.27401880    -0.38080
N828        N  0.59504494  0.45131615  0.22377486    -0.38080
C829        C  0.97434942  0.34567930  0.91595590    -0.04740
C830        C  0.97694669  0.37577401  0.89659937    -0.01860
C831        C  0.00609443  0.39440469  0.89716311     0.03130
C832        C  0.03191805  0.38487289  0.91983725    -0.04740
C833        C  0.02776932  0.35604652  0.94144958    -0.01850
C834        C  0.00060319  0.33536139  0.93681769     0.03120
C835        C  0.94924342  0.38850217  0.87734755     0.37770
C836        C  0.05037685  0.34760571  0.96978653     0.37760
C837        C  0.00123004  0.30182729  0.95039339     0.36190
C838        C  0.00851258  0.42456672  0.87625651     0.36190
N839        N  0.00315870  0.27447776  0.95922501    -0.38630
N840        N  0.01036855  0.44866576  0.85958402    -0.38630
N841        N  0.06748609  0.34082500  0.99326528    -0.38080
N842        N  0.92727163  0.39929459  0.86223438    -0.38080
C843        C  0.87523809  0.35684504  0.78864930    -0.04740
C844        C  0.84602850  0.36683943  0.77234773    -0.01860
C845        C  0.84552274  0.37740493  0.73639743     0.03130
C846        C  0.87457595  0.38068261  0.71693787    -0.04740
C847        C  0.90419987  0.37480542  0.73474596    -0.01850
C848        C  0.90443670  0.36130868  0.76991312     0.03120
C849        C  0.81640744  0.36756149  0.79298041     0.37770
C850        C  0.93430720  0.38382589  0.71778445     0.37760
C851        C  0.93471174  0.35326618  0.78726623     0.36190
C852        C  0.81492022  0.38631692  0.71995142     0.36190
N853        N  0.95895606  0.34682382  0.80097780    -0.38630
N854        N  0.79053187  0.39329215  0.70687906    -0.38630
N855        N  0.95848375  0.39170910  0.70490900    -0.38080
N856        N  0.79301653  0.36918825  0.80967227    -0.38080
C857        C  0.77751515  0.35429293  0.97776941    -0.04740
C858        C  0.75465154  0.37464890  0.96010494    -0.01860
C859        C  0.72498982  0.38098652  0.97629309     0.03130
C860        C  0.71871889  0.36762229  0.01027773    -0.04740
C861        C  0.74177926  0.34749368  0.02803217    -0.01850
C862        C  0.77118694  0.34080807  0.01163368     0.03120
C863        C  0.76227477  0.39055645  0.92615282     0.37770
C864        C  0.73637535  0.33548456  0.06430768     0.37760
C865        C  0.79492462  0.32034241  0.02973127     0.36190
C866        C  0.70215350  0.40332357  0.95943199     0.36190
N867        N  0.81381809  0.30419572  0.04436236    -0.38630
N868        N  0.68403874  0.42127703  0.94612860    -0.38630
N869        N  0.73279194  0.32676041  0.09361376    -0.38080
N870        N  0.76837371  0.40329092  0.89917523    -0.38080
C871        C  0.53511686  0.13173268  0.91979565    -0.04740
C872        C  0.50961498  0.14677800  0.90063944    -0.01860
C873        C  0.47938939  0.13070186  0.89795530     0.03130
C874        C  0.47511606  0.09805823  0.91106625    -0.04740
C875        C  0.50046344  0.08263946  0.92938448    -0.01850
C876        C  0.52934883  0.10011257  0.93602964     0.03120
C877        C  0.51326205  0.18001462  0.88636150     0.37770
C878        C  0.49570160  0.04967343  0.94419101     0.37760
C879        C  0.55121911  0.08630906  0.96253598     0.36190
C880        C  0.45212276  0.14887751  0.88378210     0.36190
N881        N  0.56782523  0.07568193  0.98470863    -0.38630
N882        N  0.43089941  0.16417052  0.87246676    -0.38630
N883        N  0.49188274  0.02340434  0.95587095    -0.38080
N884        N  0.51599563  0.20655201  0.87501689    -0.38080
C885        C  0.62403815  0.12351330  0.78484622    -0.04740
C886        C  0.63158401  0.09006223  0.77588964    -0.01860
C887        C  0.63250858  0.07968912  0.73975994     0.03130
C888        C  0.62410317  0.10173769  0.71208255    -0.04740
C889        C  0.61238161  0.13347423  0.72095531    -0.01850
C890        C  0.61239243  0.14445878  0.75716668     0.03120
C891        C  0.63891370  0.06587570  0.80358811     0.37770
C892        C  0.60047625  0.15482079  0.69260962     0.37760
C893        C  0.60131491  0.17757833  0.76538081     0.36190
C894        C  0.64450124  0.04691381  0.73094328     0.36190
N895        N  0.59221966  0.20396618  0.77183991    -0.38630
N896        N  0.65427828  0.02092338  0.72387518    -0.38630
N897        N  0.59074192  0.17163275  0.66991587    -0.38080
N898        N  0.64495706  0.04640429  0.82535254    -0.38080
C899        C  0.72736952  0.21759192  0.86788721    -0.04740
C900        C  0.75313739  0.21356750  0.89231955    -0.01860
C901        C  0.78332442  0.22886256  0.88679190     0.03130
C902        C  0.78653981  0.25604526  0.86295255    -0.04740
C903        C  0.75996318  0.26205605  0.83942034    -0.01850
C904        C  0.73118459  0.24214816  0.84102297     0.03120
C905        C  0.74719958  0.19966790  0.92730180     0.37770
C906        C  0.76298699  0.28651024  0.81130976     0.37760
C907        C  0.70547277  0.24714166  0.81521033     0.36190
C908        C  0.81105338  0.21481437  0.90492460     0.36190
N909        N  0.68488063  0.25110021  0.79461991    -0.38630
N910        N  0.83319727  0.20262303  0.91838660    -0.38630
N911        N  0.76488928  0.30533750  0.78802228    -0.38080
N912        N  0.74343477  0.19122319  0.95659215    -0.38080
C913        C  0.62757362  0.49348695  0.00694554    -0.04740
C914        C  0.65840296  0.00766282  0.00221762    -0.01860
C915        C  0.66495553  0.02786093  0.97219915     0.03130
C916        C  0.64027919  0.03640281  0.94776343    -0.04740
C917        C  0.61035251  0.01996537  0.95041750    -0.01850
C918        C  0.60403443  0.49840629  0.97973004     0.03120
C919        C  0.68375512  0.50131293  0.02811532     0.37770
C920        C  0.58636728  0.02515244  0.92263695     0.37760
C921        C  0.57325140  0.48146235  0.98205603     0.36190
C922        C  0.69748642  0.03970368  0.96611995     0.36190
N923        N  0.54869168  0.46788139  0.98393318    -0.38630
N924        N  0.72381205  0.04796120  0.96114749    -0.38630
N925        N  0.56740143  0.02917727  0.90019955    -0.38080
N926        N  0.70425578  0.49683089  0.04861894    -0.38080
C927        C  0.62848739  0.24658386  0.98652455    -0.04740
C928        C  0.65254770  0.24778270  0.01370833    -0.01860
C929        C  0.65160344  0.27189836  0.04113878     0.03130
C930        C  0.62768221  0.29662980  0.04085309    -0.04740
C931        C  0.60228745  0.29399857  0.01474484    -0.01850
C932        C  0.60294104  0.26922301  0.98784414     0.03120
C933        C  0.67864693  0.22403826  0.01398935     0.37770
C934        C  0.57470373  0.31597898  0.01533421     0.37760
C935        C  0.57638996  0.26597979  0.96248753     0.36190
C936        C  0.67425218  0.26958990  0.07083395     0.36190
N937        N  0.55513974  0.26323506  0.94244164    -0.38630
N938        N  0.69205435  0.26680597  0.09463539    -0.38630
N939        N  0.55252352  0.33323558  0.01559941    -0.38080
N940        N  0.69978169  0.20554997  0.01549430    -0.38080
C941        C  0.98045892  0.09321863  0.08746037    -0.04740
C942        C  0.98893089  0.11449886  0.11631252    -0.01860
C943        C  0.01635115  0.13552939  0.11412629     0.03130
C944        C  0.03573012  0.13614807  0.08267290    -0.04740
C945        C  0.02704316  0.11444560  0.05383334    -0.01850
C946        C  0.00022007  0.09294389  0.05661120     0.03120
C947        C  0.96868925  0.11614293  0.14793988     0.37770
C948        C  0.04580649  0.11291988  0.02099139     0.37760
C949        C  0.99374231  0.06943643  0.02772905     0.36190
C950        C  0.02373525  0.15703665  0.14438388     0.36190
N951        N  0.98870884  0.05073009  0.00475045    -0.38630
N952        N  0.02945349  0.17401581  0.16870771    -0.38630
N953        N  0.06052988  0.11135849  0.99471301    -0.38080
N954        N  0.95279507  0.11778002  0.17332346    -0.38080
C955        C  0.87821324  0.10491366  0.21603508    -0.04740
C956        C  0.89808909  0.08936885  0.24209549    -0.01860
C957        C  0.89744435  0.09988999  0.27843389     0.03130
C958        C  0.87818029  0.12694470  0.28883235    -0.04740
C959        C  0.85954264  0.14345002  0.26283261    -0.01850
C960        C  0.85832430  0.13172902  0.22721918     0.03120
C961        C  0.91955226  0.06281852  0.23181591     0.37770
C962        C  0.84067308  0.17221621  0.27287985     0.37760
C963        C  0.83475867  0.14643718  0.20309554     0.36190
C964        C  0.91722491  0.08340759  0.30512580     0.36190
N965        N  0.81581469  0.15813818  0.18412297    -0.38630
N966        N  0.93298385  0.07036715  0.32651785    -0.38630
N967        N  0.82598436  0.19545266  0.28048962    -0.38080
N968        N  0.93677696  0.04166869  0.22368954    -0.38080
C969        C  0.78839852  0.00975156  0.13173648    -0.04740
C970        C  0.78244185  0.48745960  0.10310804    -0.01860
C971        C  0.75507661  0.46634992  0.10280670     0.03130
C972        C  0.73005805  0.47007450  0.12827102    -0.04740
C973        C  0.73447364  0.49439953  0.15544122    -0.01850
C974        C  0.76366139  0.01343172  0.15776138     0.03120
C975        C  0.80209510  0.48906560  0.07104186     0.37770
C976        C  0.70913304  0.49945758  0.18146798     0.37760
C977        C  0.76791470  0.03698218  0.18681203     0.36190
C978        C  0.75310819  0.44181481  0.07457074     0.36190
N979        N  0.77125495  0.05587942  0.20996752    -0.38630
N980        N  0.75467207  0.42343009  0.05083525    -0.38630
N981        N  0.68881079  0.00350495  0.20217149    -0.38080
N982        N  0.81632014  0.49070965  0.04448738    -0.38080
C983        C  0.87269990  0.43185080  0.96348805    -0.04740
C984        C  0.87608045  0.42648300  0.00114528    -0.01860
C985        C  0.88096301  0.45321270  0.02515629     0.03130
C986        C  0.88514350  0.48572842  0.01201491    -0.04740
C987        C  0.88439141  0.99063074  0.97399384    -0.01850
C988        C  0.87709977  0.46410174  0.95016887     0.03120
C989        C  0.87581358  0.39323930  0.01592690     0.37770
C990        C  0.89314897  0.02248322  0.95882002     0.37760
C991        C  0.87604881  0.46958552  0.91168574     0.36190
C992        C  0.88068300  0.44694576  0.06357977     0.36190
N993        N  0.87525685  0.47385493  0.88096060    -0.38630
N994        N  0.88021067  0.44184375  0.09416141    -0.38630
N995        N  0.90057633  0.04769619  0.94654678    -0.38080
N996        N  0.87642825  0.36725126  0.02899636    -0.38080
C997        C  0.87575092  0.18639945  0.04611133    -0.04740
C998        C  0.84739481  0.19928718  0.03004130    -0.01860
C999        C  0.84943960  0.22392172  0.00303183     0.03130
C1000       C  0.87975654  0.23589299  0.99127697    -0.04740
C1001       C  0.90724661  0.22696481  0.01143994    -0.01850
C1002       C  0.90559534  0.20161626  0.03759084     0.03120
C1003       C  0.81586163  0.18794947  0.04133453     0.37770
C1004       C  0.93581273  0.24746840  0.00995327     0.37760
C1005       C  0.93460099  0.19242798  0.05706333     0.36190
C1006       C  0.82007773  0.23867981  0.98916826     0.36190
N1007       N  0.95774391  0.18515816  0.07254593    -0.38630
N1008       N  0.79665793  0.25077273  0.97862160    -0.38630
N1009       N  0.95815803  0.26459199  0.01134605    -0.38080
N1010       N  0.79040155  0.17985438  0.05042189    -0.38080
C1011       C  0.78538089  0.10336544  0.02166336    -0.04740
C1012       C  0.78694904  0.10569989  0.98398689    -0.01860
C1013       C  0.76035146  0.11694845  0.96497702     0.03130
C1014       C  0.73113253  0.12331244  0.98335776    -0.04740
C1015       C  0.72907319  0.11979164  0.02085944    -0.01850
C1016       C  0.75636540  0.11073652  0.04021259     0.03120
C1017       C  0.81546667  0.09577668  0.96418084     0.37770
C1018       C  0.69873427  0.12410622  0.03974785     0.37760
C1019       C  0.75416704  0.11019721  0.07926643     0.36190
C1020       C  0.76348203  0.12158606  0.92631270     0.36190
N1021       N  0.75222857  0.10980764  0.11027860    -0.38630
N1022       N  0.76627543  0.12505989  0.89562199    -0.38630
N1023       N  0.67469734  0.12748014  0.05492924    -0.38080
N1024       N  0.83795488  0.08806774  0.94800851    -0.38080
Fe1025     Fe  0.89091615  0.53985551  0.11778379     1.65780
Fe1026     Fe  0.88726551  0.58783992  0.04499917     1.73250
Fe1027     Fe  0.83861236  0.60080277  0.11321852     1.54420
O1028       O  0.81926538  0.56037641  0.14191702    -0.81080
O1029       O  0.89805851  0.63453061  0.06163292    -0.79390
O1030       O  0.84544841  0.51728714  0.12025451    -0.83590
O1031       O  0.88371723  0.56361077  0.16848913    -0.78440
O1032       O  0.81105855  0.58446198  0.07296813    -0.80220
O1033       O  0.93391665  0.57450615  0.05643367    -0.82960
C1034       C  0.87727279  0.59362927  0.17746661     0.97800
C1035       C  0.81943275  0.53012493  0.13193727     1.05240
O1036       O  0.87277208  0.57623702  0.09224550    -1.11940
O1037       O  0.87635889  0.54205455  0.02615617    -0.74380
O1038       O  0.89883526  0.51220705  0.06946681    -0.77860
O1039       O  0.86808316  0.61441433  0.15421382    -0.78550
C1040       C  0.88727792  0.51487137  0.03744813     0.96710
O1041       O  0.93570948  0.56364804  0.11476257    -0.76510
O1042       O  0.84191404  0.60266357  0.02914140    -0.81700
C1043       C  0.87515383  0.65439397  0.06678889     0.99330
C1044       C  0.81440661  0.59565191  0.04190177     1.05250
O1045       O  0.85050028  0.64518101  0.08485718    -0.77350
C1046       C  0.94848354  0.57571578  0.08647459     1.03550
Fe1047     Fe  0.62341804  0.68748291  0.88421613     1.65780
Fe1048     Fe  0.63283835  0.64269375  0.96094910     1.73250
Fe1049     Fe  0.67490323  0.62179114  0.88765948     1.54410
O1050       O  0.65406557  0.62153697  0.83850822    -0.81080
O1051       O  0.67977629  0.64693534  0.97517666    -0.79390
O1052       O  0.61813310  0.66132382  0.83558393    -0.83590
O1053       O  0.66931381  0.70719361  0.87018670    -0.78440
O1054       O  0.65041997  0.57763427  0.90114258    -0.80220
O1055       O  0.62832401  0.68995399  0.97643809    -0.82960
C1056       C  0.69788312  0.69504217  0.87091213     0.97800
C1057       C  0.63209280  0.63640764  0.82186841     1.05240
O1058       O  0.64324640  0.65065922  0.91051740    -1.11940
O1059       O  0.58551654  0.63879687  0.94829333    -0.74380
O1060       O  0.57779414  0.66780319  0.89783614    -0.77860
O1061       O  0.70290285  0.66405719  0.87599177    -0.78550
C1062       C  0.56786303  0.64775123  0.92227247     0.96710
O1063       O  0.62486300  0.72086768  0.92779705    -0.76510
O1064       O  0.63659249  0.59263901  0.95645821    -0.81700
C1065       C  0.70215696  0.62952131  0.96259107     0.99330
C1066       C  0.64171171  0.57060025  0.93315582     1.05250
O1067       O  0.70043251  0.61563717  0.93256157    -0.77350
C1068       C  0.62709025  0.71768806  0.96168866     1.03550
Fe1069     Fe  0.88669402  0.79037853  0.88485246     1.65780
Fe1070     Fe  0.88128608  0.83665403  0.95859161     1.73250
Fe1071     Fe  0.83313779  0.85122901  0.88918617     1.54410
O1072       O  0.86318016  0.86551673  0.84922970    -0.81080
O1073       O  0.83442526  0.85051248  0.97360838    -0.79390
O1074       O  0.88124040  0.81529318  0.83476632    -0.83590
O1075       O  0.84233640  0.76714657  0.87841463    -0.78440
O1076       O  0.84541345  0.89536341  0.91995788    -0.80220
O1077       O  0.87066931  0.79118838  0.97722906    -0.82960
C1078       C  0.81601613  0.77898275  0.86624568     0.97800
C1079       C  0.87438488  0.84532508  0.82652304     1.05240
O1080       O  0.86672313  0.82543569  0.91095235    -1.11940
O1081       O  0.92912730  0.82465001  0.94817297    -0.74380
O1082       O  0.93050709  0.81523115  0.88957045    -0.77860
O1083       O  0.81387786  0.81009673  0.85943244    -0.78550
C1084       C  0.94310624  0.82722373  0.91792506     0.96710
O1085       O  0.89296883  0.76144237  0.93336149    -0.76510
O1086       O  0.89303949  0.88227083  0.94141098    -0.81700
C1087       C  0.80690490  0.84575600  0.95912039     0.99330
C1088       C  0.87054812  0.90258950  0.93879364     1.05250
O1089       O  0.80345617  0.83599170  0.92741207    -0.77350
C1090       C  0.88123290  0.76416333  0.96533140     1.03550
Fe1091     Fe  0.62635836  0.94274079  0.11520638     1.65780
Fe1092     Fe  0.61959024  0.89303180  0.04248194     1.73250
Fe1093     Fe  0.67511052  0.87885384  0.10506045     1.54420
O1094       O  0.70021455  0.91849951  0.13009745    -0.81080
O1095       O  0.60950075  0.84827390  0.06287656    -0.79390
O1096       O  0.67281812  0.96384317  0.11608636    -0.83590
O1097       O  0.63437283  0.91795279  0.16516859    -0.78440
O1098       O  0.69870396  0.89154478  0.06110390    -0.80220
O1099       O  0.57453841  0.90714165  0.05978922    -0.82960
C1100       C  0.63967531  0.88752499  0.17343190     0.97800
C1101       C  0.69918410  0.94977709  0.12493435     1.05240
O1102       O  0.64057873  0.90559013  0.08735222    -1.11940
O1103       O  0.62848900  0.93757130  0.02054004    -0.74380
O1104       O  0.61799802  0.97114121  0.06701415    -0.77860
O1105       O  0.65000382  0.86745013  0.15005730    -0.78550
C1106       C  0.62389255  0.96604582  0.03341818     0.96710
O1107       O  0.58053552  0.92074450  0.11706524    -0.76510
O1108       O  0.66270949  0.87608542  0.02004313    -0.81700
C1109       C  0.63153109  0.82730763  0.06364947     0.99330
C1110       C  0.69164861  0.87964583  0.03093898     1.05250
O1111       O  0.65819168  0.83483642  0.07902775    -0.77350
C1112       C  0.56470712  0.90659154  0.09198059     1.03550
Fe1113     Fe  0.88804103  0.68977691  0.38666046     1.65780
Fe1114     Fe  0.88683477  0.64180454  0.45872638     1.73250
Fe1115     Fe  0.83512905  0.62785812  0.39163453     1.54410
O1116       O  0.81486208  0.66814255  0.36381808    -0.81080
O1117       O  0.89690338  0.59685673  0.43839496    -0.79390
O1118       O  0.84191671  0.71181295  0.38428233    -0.83590
O1119       O  0.88072091  0.66627074  0.33674425    -0.78440
O1120       O  0.80760338  0.64238349  0.43304441    -0.80220
O1121       O  0.93381108  0.65528800  0.44649032    -0.82960
C1122       C  0.87472788  0.63637066  0.32717804     0.97800
C1123       C  0.81557926  0.69871147  0.37265250     1.05240
O1124       O  0.86982381  0.65370178  0.41240930    -1.11940
O1125       O  0.87810892  0.68678465  0.47977042    -0.74380
O1126       O  0.89716111  0.71723007  0.43455699    -0.77860
O1127       O  0.86314687  0.61501241  0.34864783    -0.78550
C1128       C  0.88813691  0.71398868  0.46734438     0.96710
O1129       O  0.93305080  0.66575808  0.38842311    -0.76510
O1130       O  0.84102843  0.62643882  0.47565498    -0.81700
C1131       C  0.87382332  0.57682136  0.43776611     0.99330
C1132       C  0.81265878  0.62950793  0.46317210     1.05250
O1133       O  0.84820357  0.58370281  0.42010791    -0.77350
C1134       C  0.94689642  0.65306050  0.41584234     1.03550
Fe1135     Fe  0.62299903  0.54152492  0.61217596     1.65780
Fe1136     Fe  0.63232565  0.58623479  0.53787421     1.73250
Fe1137     Fe  0.67605517  0.60562036  0.60996696     1.54410
O1138       O  0.65256188  0.60998155  0.65822648    -0.81080
O1139       O  0.67734158  0.57081916  0.52375327    -0.79390
O1140       O  0.61861644  0.56707592  0.66048916    -0.83590
O1141       O  0.66781622  0.52109297  0.62702007    -0.78440
O1142       O  0.65347432  0.64954601  0.59316022    -0.80220
O1143       O  0.61233218  0.54172611  0.52424769    -0.82960
C1144       C  0.69639707  0.53304128  0.62969132     0.97800
C1145       C  0.63155841  0.59274391  0.67432392     1.05240
O1146       O  0.64349726  0.57784590  0.58765475    -1.11940
O1147       O  0.58875239  0.60132453  0.55555483    -0.74380
O1148       O  0.57753126  0.56203810  0.59666412    -0.77860
O1149       O  0.70223405  0.56405560  0.62704024    -0.78550
C1150       C  0.56943233  0.58732691  0.57736040     0.96710
O1151       O  0.62689428  0.50993292  0.56813694    -0.76510
O1152       O  0.64856882  0.63366139  0.53675623    -0.81700
C1153       C  0.70260403  0.58504475  0.53595924     0.99330
C1154       C  0.64906389  0.65607301  0.56009974     1.05250
O1155       O  0.70255003  0.60354654  0.56373676    -0.77350
C1156       C  0.61970189  0.51360246  0.53536960     1.03550
Fe1157     Fe  0.62489590  0.78827914  0.38351003     1.65780
Fe1158     Fe  0.62442236  0.83559927  0.45650685     1.73250
Fe1159     Fe  0.67401190  0.85411362  0.38940184     1.54420
O1160       O  0.69897068  0.81370785  0.36524411    -0.81080
O1161       O  0.60860132  0.87950099  0.43779609    -0.79390
O1162       O  0.67122200  0.76799435  0.37945968    -0.83590
O1163       O  0.62983012  0.81192476  0.33310206    -0.78440
O1164       O  0.70237631  0.84555378  0.43179929    -0.80220
O1165       O  0.57972813  0.81561825  0.44427878    -0.82960
C1166       C  0.63560225  0.84174121  0.32311151     0.97800
C1167       C  0.69760945  0.78221450  0.37040513     1.05240
O1168       O  0.64173134  0.82556045  0.40971539    -1.11940
O1169       O  0.64006799  0.79198471  0.47555091    -0.74380
O1170       O  0.61941080  0.76003074  0.43198553    -0.77860
O1171       O  0.64663963  0.86338020  0.34465970    -0.78550
C1172       C  0.63140506  0.76403163  0.46369594     0.96710
O1173       O  0.57906578  0.81036647  0.38612421    -0.76510
O1174       O  0.66736360  0.85697192  0.47418306    -0.81700
C1175       C  0.62940772  0.90202554  0.43471673     0.99330
C1176       C  0.69579244  0.85694217  0.46217660     1.05250
O1177       O  0.65498937  0.89733684  0.41600983    -0.77350
C1178       C  0.56574416  0.82103347  0.41461364     1.03550
Fe1179     Fe  0.88495746  0.93957486  0.61710930     1.65780
Fe1180     Fe  0.88109508  0.89616676  0.54038900     1.73250
Fe1181     Fe  0.83447707  0.87342458  0.60807531     1.54410
O1182       O  0.85276720  0.87243242  0.65928468    -0.81080
O1183       O  0.83449343  0.90826758  0.52375111    -0.79390
O1184       O  0.88835480  0.91356967  0.66541695    -0.83590
O1185       O  0.83903684  0.95800177  0.63042153    -0.78440
O1186       O  0.85940460  0.82953791  0.59411960    -0.80220
O1187       O  0.89814961  0.94182050  0.52928997    -0.82960
C1188       C  0.81062225  0.94591486  0.62691298     0.97800
C1189       C  0.87254508  0.88919213  0.67803984     1.05240
O1190       O  0.86769409  0.90257384  0.58978637    -1.11940
O1191       O  0.92554205  0.88431580  0.55914693    -0.74380
O1192       O  0.93179399  0.92119767  0.60454911    -0.77860
O1193       O  0.80575742  0.91527657  0.61947144    -0.78550
C1194       C  0.94211150  0.89753937  0.58426668     0.96710
O1195       O  0.88053162  0.97176823  0.57331757    -0.76510
O1196       O  0.86986770  0.84803177  0.53958719    -0.81700
C1197       C  0.81009579  0.89186045  0.53494189     0.99330
C1198       C  0.86562596  0.82438967  0.56093862     1.05250
O1199       O  0.81290923  0.87048982  0.55935832    -0.77350
C1200       C  0.88787805  0.96876523  0.54052485     1.03550
Fe1201     Fe  0.12351802  0.69335045  0.11229990     1.65780
Fe1202     Fe  0.12727155  0.64344400  0.04116371     1.73250
Fe1203     Fe  0.17430275  0.63029033  0.11223929     1.54410
O1204       O  0.19460441  0.67185718  0.13901009    -0.81080
O1205       O  0.11459799  0.59726355  0.05874302    -0.79390
O1206       O  0.16941889  0.71495367  0.11601631    -0.83590
O1207       O  0.12810010  0.67112802  0.16354271    -0.78440
O1208       O  0.20361383  0.64234906  0.07265126    -0.80220
O1209       O  0.08088154  0.65946734  0.05108991    -0.82960
C1210       C  0.13337243  0.64151503  0.17444114     0.97800
C1211       C  0.19493233  0.70229603  0.12942154     1.05240
O1212       O  0.14158292  0.65569952  0.08865147    -1.11940
O1213       O  0.13976176  0.68867564  0.02141635    -0.74380
O1214       O  0.11722288  0.72030477  0.06338411    -0.77860
O1215       O  0.14477566  0.61961439  0.15378066    -0.78550
C1216       C  0.12939416  0.71638255  0.03203352     0.96710
O1217       O  0.07873269  0.66982122  0.10883671    -0.76510
O1218       O  0.17251167  0.62658435  0.02682344    -0.81700
C1219       C  0.13597725  0.57627961  0.06677537     0.99330
C1220       C  0.19989745  0.63169004  0.04132722     1.05250
O1221       O  0.16062205  0.58501063  0.08558817    -0.77350
C1222       C  0.06641264  0.65661273  0.08084000     1.03550
Fe1223     Fe  0.38423126  0.54237627  0.88627005     1.65780
Fe1224     Fe  0.38195719  0.59092834  0.95988127     1.73250
Fe1225     Fe  0.34029631  0.61228160  0.88772425     1.54410
O1226       O  0.36300625  0.61260612  0.83922200    -0.81080
O1227       O  0.33626703  0.58314672  0.97712500    -0.79390
O1228       O  0.38861583  0.56442589  0.83608134    -0.83590
O1229       O  0.33681176  0.52637669  0.87468862    -0.78440
O1230       O  0.36954038  0.65371082  0.90329445    -0.80220
O1231       O  0.39677471  0.54551022  0.97504439    -0.82960
C1232       C  0.30985980  0.54149564  0.87110459     0.97800
C1233       C  0.37919599  0.59139661  0.82223933     1.05240
O1234       O  0.36864367  0.58129234  0.91063699    -1.11940
O1235       O  0.42598008  0.60014132  0.93952348    -0.74380
O1236       O  0.43169871  0.55967729  0.89789271    -0.77860
O1237       O  0.30852089  0.57328537  0.87230126    -0.78550
C1238       C  0.44219627  0.58493164  0.91590672     0.96710
O1239       O  0.37965089  0.51325264  0.93187546    -0.76510
O1240       O  0.37039151  0.63908593  0.95956855    -0.81700
C1241       C  0.31380876  0.60127717  0.96464717     0.99330
C1242       C  0.37653109  0.66000392  0.93606858     1.05250
O1243       O  0.31503425  0.61417796  0.93372549    -0.77350
C1244       C  0.38620937  0.51816117  0.96466027     1.03550
Fe1245     Fe  0.11964102  0.94177924  0.88733913     1.65780
Fe1246     Fe  0.12672535  0.89247653  0.95877866     1.73250
Fe1247     Fe  0.17529889  0.88231714  0.88851272     1.54420
O1248       O  0.14695699  0.86972807  0.84532262    -0.81080
O1249       O  0.17253651  0.87898836  0.97401103    -0.79390
O1250       O  0.12521608  0.91950811  0.83610381    -0.83590
O1251       O  0.16412395  0.96670228  0.88271875    -0.78440
O1252       O  0.16431336  0.83601820  0.91430563    -0.80220
O1253       O  0.13602321  0.93852576  0.97859919    -0.82960
C1254       C  0.19096985  0.95588460  0.87084771     0.97800
C1255       C  0.13344836  0.89070362  0.82494306     1.05240
O1256       O  0.14037517  0.90552644  0.91133165    -1.11940
O1257       O  0.07907687  0.90459991  0.94973375    -0.74380
O1258       O  0.07545477  0.91618500  0.89189835    -0.77860
O1259       O  0.19352715  0.92516474  0.86285933    -0.78550
C1260       C  0.06362881  0.90333159  0.92034860     0.96710
O1261       O  0.11262200  0.96889117  0.93592715    -0.76510
O1262       O  0.11761176  0.84540231  0.94070603    -0.81700
C1263       C  0.19998561  0.88516709  0.96072957     0.99330
C1264       C  0.14011002  0.82575542  0.93258349     1.05250
O1265       O  0.20397403  0.89578015  0.92940742    -0.77350
C1266       C  0.12494109  0.96576259  0.96740588     1.03550
Fe1267     Fe  0.38744175  0.79229796  0.11137734     1.65780
Fe1268     Fe  0.38418933  0.84485833  0.04158804     1.73250
Fe1269     Fe  0.33449842  0.85374862  0.11143732     1.54410
O1270       O  0.31776778  0.81224486  0.14020602    -0.81080
O1271       O  0.38925801  0.89252293  0.05749116    -0.79390
O1272       O  0.34132609  0.77003809  0.11384342    -0.83590
O1273       O  0.38199209  0.81553830  0.16225215    -0.78440
O1274       O  0.30564063  0.83798795  0.07244974    -0.80220
O1275       O  0.43245947  0.83940458  0.05604900    -0.82960
C1276       C  0.37586775  0.84503135  0.17349329     0.97800
C1277       C  0.31655020  0.78242226  0.12894005     1.05240
O1278       O  0.36949535  0.83050624  0.08815152    -1.11940
O1279       O  0.38125930  0.79973816  0.01911938    -0.74380
O1280       O  0.39545366  0.76577977  0.06265656    -0.77860
O1281       O  0.36404475  0.86694301  0.15284985    -0.78550
C1282       C  0.39008704  0.77166034  0.02929916     0.96710
O1283       O  0.43312873  0.81401407  0.10963390    -0.76510
O1284       O  0.33632342  0.85146497  0.02539162    -0.81700
C1285       C  0.36547403  0.91050523  0.06397267     0.99330
C1286       C  0.30904557  0.84564425  0.04012954     1.05250
O1287       O  0.34227101  0.89959302  0.08316374    -0.77350
C1288       C  0.44639686  0.83191762  0.08559181     1.03550
Fe1289     Fe  0.12751474  0.54454252  0.38226842     1.65780
Fe1290     Fe  0.12492433  0.59298301  0.45451271     1.73250
Fe1291     Fe  0.17976264  0.60695819  0.39135300     1.54420
O1292       O  0.20344581  0.56569135  0.36815927    -0.81080
O1293       O  0.11344359  0.63745683  0.43303742    -0.79390
O1294       O  0.17303038  0.52195909  0.38048081    -0.83590
O1295       O  0.13495896  0.56816028  0.33260402    -0.78440
O1296       O  0.20414220  0.59601118  0.43625777    -0.80220
O1297       O  0.07962809  0.57640334  0.43978067    -0.82960
C1298       C  0.14194802  0.59783773  0.32333269     0.97800
C1299       C  0.20038805  0.53425965  0.37176056     1.05240
O1300       O  0.14447502  0.58098245  0.40932484    -1.11940
O1301       O  0.13576984  0.54804018  0.47608085    -0.74380
O1302       O  0.11800214  0.51741174  0.43038396    -0.77860
O1303       O  0.15573744  0.61753776  0.34508660    -0.78550
C1304       C  0.12597482  0.52047086  0.46373107     0.96710
O1305       O  0.08248030  0.56759941  0.38149249    -0.76510
O1306       O  0.16761055  0.61283284  0.47508740    -0.81700
C1307       C  0.13531828  0.65909217  0.43115671     0.99330
C1308       C  0.19663706  0.61076582  0.46467750     1.05250
O1309       O  0.16200703  0.65180790  0.41567976    -0.77350
C1310       C  0.06731468  0.57830001  0.40863930     1.03550
Fe1311     Fe  0.38419783  0.68764864  0.61662216     1.65780
Fe1312     Fe  0.38289068  0.64757678  0.53813248     1.73250
Fe1313     Fe  0.33480481  0.62213323  0.60306022     1.54410
O1314       O  0.35121222  0.61978937  0.65436899    -0.81080
O1315       O  0.33666579  0.66174566  0.52157945    -0.79390
O1316       O  0.38826436  0.65858208  0.66270475    -0.83590
O1317       O  0.33750717  0.70370707  0.63162159    -0.78440
O1318       O  0.36113039  0.57978388  0.58875917    -0.80220
O1319       O  0.40087072  0.69363888  0.53149344    -0.82960
C1320       C  0.30883888  0.69220663  0.62742035     0.97800
C1321       C  0.37192328  0.63396986  0.67408434     1.05240
O1322       O  0.36839302  0.65169653  0.58746355    -1.11940
O1323       O  0.42658227  0.63471050  0.55748257    -0.74380
O1324       O  0.43195907  0.67186565  0.60273812    -0.77860
O1325       O  0.30439299  0.66254419  0.61591637    -0.78550
C1326       C  0.44317113  0.64893885  0.58194642     0.96710
O1327       O  0.37824777  0.72102288  0.57402561    -0.76510
O1328       O  0.37156796  0.59902829  0.53429619    -0.81700
C1329       C  0.31272368  0.64451056  0.53229782     0.99330
C1330       C  0.36717780  0.57512383  0.55549095     1.05250
O1331       O  0.31736404  0.62051662  0.55276154    -0.77350
C1332       C  0.38668719  0.71900292  0.54144326     1.03550
Fe1333     Fe  0.12272091  0.79320707  0.61587815     1.65780
Fe1334     Fe  0.12346189  0.83772854  0.54082940     1.73250
Fe1335     Fe  0.17493290  0.85609945  0.60707122     1.54420
O1336       O  0.14786465  0.86765049  0.65110854    -0.81080
O1337       O  0.16714434  0.85513266  0.52177550    -0.79390
O1338       O  0.12995279  0.81787142  0.66574287    -0.83590
O1339       O  0.16768460  0.77114382  0.61959478    -0.78440
O1340       O  0.15787617  0.89961655  0.57965676    -0.80220
O1341       O  0.13613559  0.79214273  0.52410171    -0.82960
C1342       C  0.19520631  0.78339825  0.62757483     0.97800
C1343       C  0.13686368  0.84781077  0.67435986     1.05240
O1344       O  0.14087118  0.82870107  0.58789484    -1.11940
O1345       O  0.07747563  0.82168544  0.55400705    -0.74380
O1346       O  0.07785039  0.81668288  0.61272356    -0.77860
O1347       O  0.19837688  0.81489529  0.63192987    -0.78550
C1348       C  0.06399880  0.82645823  0.58404401     0.96710
O1349       O  0.11476295  0.76319552  0.56912072    -0.76510
O1350       O  0.11099847  0.88390035  0.55659322    -0.81700
C1351       C  0.19575151  0.85480513  0.53362439     0.99330
C1352       C  0.13283415  0.90544137  0.56027226     1.05250
O1353       O  0.20302160  0.84608428  0.56498196    -0.77350
C1354       C  0.12660723  0.76506234  0.53731977     1.03550
Fe1355     Fe  0.38849395  0.93791091  0.38331304     1.65780
Fe1356     Fe  0.38324411  0.89069954  0.45696861     1.73250
Fe1357     Fe  0.33374124  0.87786780  0.38722560     1.54420
O1358       O  0.31722637  0.91793860  0.35587530    -0.81080
O1359       O  0.38871521  0.84293510  0.44277746    -0.79390
O1360       O  0.34327669  0.96110120  0.37805027    -0.83590
O1361       O  0.38247281  0.91200054  0.33450953    -0.78440
O1362       O  0.30479279  0.89532813  0.42465298    -0.80220
O1363       O  0.43158073  0.89611483  0.44439112    -0.82960
C1364       C  0.37636621  0.88191855  0.32553335     0.97800
C1365       C  0.31750373  0.94846546  0.36491768     1.05240
O1366       O  0.36889827  0.90232252  0.40935383    -1.11940
O1367       O  0.37941416  0.93687235  0.47576263    -0.74380
O1368       O  0.39604626  0.96745660  0.42973708    -0.77860
O1369       O  0.36371406  0.86199564  0.34777284    -0.78550
C1370       C  0.38781743  0.96415726  0.46266424     0.96710
O1371       O  0.43354670  0.91479292  0.38805792    -0.76510
O1372       O  0.33534930  0.88419586  0.47249203    -0.81700
C1373       C  0.36420072  0.82506378  0.43912980     0.99330
C1374       C  0.30809092  0.88872146  0.45725297     1.05250
O1375       O  0.34107165  0.83419566  0.41882705    -0.77350
C1376       C  0.44644220  0.89993012  0.41477195     1.03550
C1377       C  0.22157241  0.86669006  0.51119831    -0.04740
C1378       C  0.24062835  0.89370956  0.52317096    -0.01860
C1379       C  0.26916294  0.90149460  0.50520572     0.03130
C1380       C  0.27841887  0.88186463  0.47599942    -0.04740
C1381       C  0.25839820  0.85589505  0.46300915    -0.01850
C1382       C  0.22926004  0.84919962  0.47995767     0.03120
C1383       C  0.23058305  0.91389953  0.55337097     0.37770
C1384       C  0.26808529  0.83494293  0.43321159     0.37760
C1385       C  0.20750229  0.82414218  0.46551971     0.36190
C1386       C  0.28892646  0.92944412  0.51653581     0.36190
N1387       N  0.19005366  0.80463527  0.45335702    -0.38630
N1388       N  0.30471994  0.95174851  0.52539413    -0.38630
N1389       N  0.27496261  0.81776881  0.40956331    -0.38080
N1390       N  0.22281295  0.93038575  0.57723843    -0.38080
C1391       C  0.27940063  0.71482984  0.63388370    -0.04740
C1392       C  0.24751433  0.70327110  0.62774848    -0.01860
C1393       C  0.22139181  0.72543462  0.62271253     0.03130
C1394       C  0.22426418  0.75979499  0.63141003    -0.04740
C1395       C  0.25518859  0.77058759  0.64387585    -0.01850
C1396       C  0.28229624  0.74864003  0.64461733     0.03120
C1397       C  0.23953370  0.66893547  0.63427108     0.37770
C1398       C  0.25960492  0.80429960  0.65647908     0.37760
C1399       C  0.31243148  0.76046666  0.65985864     0.36190
C1400       C  0.19179987  0.71181383  0.60763894     0.36190
N1401       N  0.33630141  0.76989297  0.67252766    -0.38630
N1402       N  0.16852822  0.70071396  0.59515031    -0.38630
N1403       N  0.26332727  0.83113192  0.66676352    -0.38080
N1404       N  0.23112181  0.64253370  0.64193813    -0.38080
C1405       C  0.36277684  0.79486840  0.46197638    -0.04740
C1406       C  0.35228718  0.79731720  0.49811362    -0.01860
C1407       C  0.36093665  0.77337208  0.52386029     0.03130
C1408       C  0.37898077  0.74530384  0.51397686    -0.04740
C1409       C  0.38732328  0.74153885  0.47685495    -0.01850
C1410       C  0.37996958  0.76658689  0.45155774     0.03120
C1411       C  0.33309012  0.82457819  0.51089459     0.37770
C1412       C  0.40347643  0.71215926  0.46369995     0.37760
C1413       C  0.39103665  0.76379259  0.41472348     0.36190
C1414       C  0.35140900  0.77871002  0.56094443     0.36190
N1415       N  0.39999566  0.76158906  0.38543018    -0.38630
N1416       N  0.34371556  0.78374284  0.59025036    -0.38630
N1417       N  0.41605408  0.68879343  0.45258515    -0.38150
N1418       N  0.31786010  0.84400620  0.52597743    -0.38080
C1419       C  0.38463624  0.99297285  0.48702859    -0.04740
C1420       C  0.39576019  0.99145449  0.52324443    -0.01860
C1421       C  0.38803178  0.51693830  0.54791535     0.03130
C1422       C  0.36720776  0.54248846  0.53727176    -0.04740
C1423       C  0.35294819  0.54121968  0.50256826    -0.01850
C1424       C  0.36366154  0.51847541  0.47692655     0.03120
C1425       C  0.41552165  0.96402516  0.53508226     0.37770
C1426       C  0.32730823  0.56382102  0.49255043     0.37760
C1427       C  0.35271161  0.52168366  0.44009669     0.36190
C1428       C  0.40177486  0.01718095  0.58376812     0.36190
N1429       N  0.34414430  0.52559588  0.41084848    -0.38630
N1430       N  0.41260851  0.01733034  0.61247305    -0.38630
N1431       N  0.30667896  0.58102836  0.48334887    -0.38080
N1432       N  0.43095683  0.94201135  0.54489546    -0.38080
C1433       C  0.22987925  0.51144272  0.36620564    -0.04740
C1434       C  0.26007246  0.52372980  0.35318416    -0.01860
C1435       C  0.28789933  0.00301163  0.35103358     0.03130
C1436       C  0.28683739  0.96932488  0.36156394    -0.04740
C1437       C  0.25621949  0.95621765  0.37104636    -0.01850
C1438       C  0.22864717  0.97694231  0.37455297     0.03120
C1439       C  0.26311203  0.55780243  0.34140411     0.37770
C1440       C  0.25228408  0.92090836  0.37668096     0.37760
C1441       C  0.19925371  0.96193970  0.38786550     0.36190
C1442       C  0.31739586  0.51599983  0.33562738     0.36190
N1443       N  0.17623263  0.94925985  0.39870879    -0.38630
N1444       N  0.34089328  0.52628589  0.32316260    -0.38630
N1445       N  0.24803543  0.89278009  0.38041780    -0.38080
N1446       N  0.26578466  0.58495416  0.33188106    -0.38080
C1447       C  0.13155661  0.68982646  0.45425334    -0.04740
C1448       C  0.10201312  0.69602751  0.47275188    -0.01860
C1449       C  0.10071828  0.71905642  0.50150167     0.03130
C1450       C  0.12873347  0.73585263  0.51290097    -0.04740
C1451       C  0.15792715  0.73005357  0.49460752    -0.01850
C1452       C  0.15877265  0.70924983  0.46405528     0.03120
C1453       C  0.07221412  0.67989158  0.46180385     0.37770
C1454       C  0.18755570  0.74511311  0.50789459     0.37760
C1455       C  0.18681477  0.71076624  0.44117641     0.36190
C1456       C  0.07024315  0.72615578  0.51880769     0.36190
N1457       N  0.20891994  0.71388438  0.42266527    -0.38630
N1458       N  0.04596241  0.73185848  0.53260555    -0.38630
N1459       N  0.21115462  0.75683390  0.51884347    -0.38080
N1460       N  0.04822897  0.66720747  0.45355017    -0.38080
C1461       C  0.13070578  0.93529571  0.53644210    -0.04740
C1462       C  0.12507901  0.93097445  0.49897721    -0.01860
C1463       C  0.12084295  0.95842994  0.47600165     0.03130
C1464       C  0.12456056  0.99113455  0.48920814    -0.04740
C1465       C  0.12803934  0.49534093  0.52722578    -0.01850
C1466       C  0.13191309  0.96766727  0.55034257     0.03120
C1467       C  0.12457069  0.89820195  0.48286221     0.37770
C1468       C  0.12441178  0.52772489  0.54352649     0.37760
C1469       C  0.13608724  0.97245550  0.58871979     0.36190
C1470       C  0.11099223  0.95235371  0.43906027     0.36190
N1471       N  0.13945287  0.97618601  0.61934370    -0.38630
N1472       N  0.10263414  0.94721342  0.40985413    -0.38630
N1473       N  0.12063643  0.55329321  0.55690345    -0.38080
N1474       N  0.12387006  0.87271629  0.46855407    -0.38080
C1475       C  0.22226676  0.62794581  0.48419948    -0.04740
C1476       C  0.22472766  0.62390693  0.52133914    -0.01860
C1477       C  0.25405308  0.63092213  0.53809909     0.03130
C1478       C  0.27941823  0.64710805  0.51856525    -0.04740
C1479       C  0.27376288  0.65752258  0.48306765    -0.01850
C1480       C  0.24623668  0.64574024  0.46506379     0.03120
C1481       C  0.19914732  0.60775460  0.54147877     0.37770
C1482       C  0.29770122  0.67664019  0.46361721     0.37760
C1483       C  0.24404860  0.64963677  0.42633071     0.36190
C1484       C  0.25942915  0.61483878  0.57259063     0.36190
N1485       N  0.24257315  0.65224699  0.39540389    -0.38630
N1486       N  0.26454643  0.59968963  0.59836008    -0.38630
N1487       N  0.31665926  0.69196109  0.44800441    -0.38080
N1488       N  0.17919476  0.59490406  0.55805940    -0.38080
C1489       C  0.38154440  0.87064859  0.28726217    -0.04740
C1490       C  0.37316920  0.83792271  0.27596555    -0.01860
C1491       C  0.37270455  0.82939112  0.23909543     0.03130
C1492       C  0.38007232  0.85331975  0.21253905    -0.04740
C1493       C  0.38876861  0.88572865  0.22383962    -0.01850
C1494       C  0.39161321  0.89358258  0.26065071     0.03120
C1495       C  0.36411673  0.81256260  0.30172113     0.37770
C1496       C  0.39228602  0.91257996  0.19836922     0.37760
C1497       C  0.40477686  0.92584875  0.27040917     0.36190
C1498       C  0.36137784  0.79658869  0.22865297     0.36190
N1499       N  0.41544649  0.95152704  0.27784903    -0.38630
N1500       N  0.35209227  0.77054651  0.22046359    -0.38630
N1501       N  0.39400811  0.93561304  0.18004847    -0.38080
N1502       N  0.35656938  0.79221234  0.32191675    -0.38080
C1503       C  0.13029309  0.88206639  0.78604794    -0.04740
C1504       C  0.11355955  0.85328215  0.77486017    -0.01860
C1505       C  0.11450349  0.84269923  0.73847973     0.03130
C1506       C  0.13330153  0.86019253  0.71273771    -0.04740
C1507       C  0.14975452  0.88956075  0.72445970    -0.01850
C1508       C  0.14775146  0.90046673  0.76050524     0.03120
C1509       C  0.09519248  0.83452237  0.80102143     0.37770
C1510       C  0.17035941  0.90834846  0.70038761     0.37760
C1511       C  0.16547124  0.92988851  0.77180855     0.36190
C1512       C  0.09579668  0.81379162  0.72800679     0.36190
N1513       N  0.17963415  0.95332720  0.78062045    -0.38630
N1514       N  0.08079283  0.79069742  0.71986804    -0.38630
N1515       N  0.18689259  0.92347214  0.68148363    -0.38080
N1516       N  0.08060565  0.81961277  0.82197831    -0.38080
C1517       C  0.22830567  0.87635980  0.98090340    -0.04740
C1518       C  0.25035631  0.85399855  0.96551406    -0.01860
C1519       C  0.27361108  0.83949222  0.98735090     0.03130
C1520       C  0.27949105  0.85307726  0.02133717    -0.04740
C1521       C  0.25920749  0.87794147  0.03564999    -0.01850
C1522       C  0.23220547  0.88784844  0.01621141     0.03120
C1523       C  0.25005738  0.84683835  0.92725778     0.37770
C1524       C  0.26703807  0.89510116  0.06894954     0.37760
C1525       C  0.20970549  0.91128643  0.03168183     0.36190
C1526       C  0.28990611  0.80974071  0.97584697     0.36190
N1527       N  0.19183452  0.92978722  0.04436762    -0.38630
N1528       N  0.30130080  0.78496338  0.96705798    -0.38630
N1529       N  0.27293361  0.90926326  0.09525402    -0.38080
N1530       N  0.25000638  0.84151345  0.89668988    -0.38080
C1531       C  0.38251188  0.59683471  0.78328101    -0.04740
C1532       C  0.40520244  0.61939189  0.76957520    -0.01860
C1533       C  0.40139934  0.63255393  0.73468093     0.03130
C1534       C  0.37630796  0.62075869  0.71168531    -0.04740
C1535       C  0.35492499  0.59581681  0.72528566    -0.01850
C1536       C  0.35798803  0.58445677  0.76081142     0.03120
C1537       C  0.43355042  0.62780108  0.79051289     0.37770
C1538       C  0.32825053  0.58244583  0.70419073     0.37760
C1539       C  0.33480198  0.56064781  0.77477893     0.36190
C1540       C  0.42288810  0.65910536  0.72369051     0.36190
N1541       N  0.31606420  0.54176227  0.78533177    -0.38630
N1542       N  0.44004860  0.68039945  0.71530302    -0.38630
N1543       N  0.30686977  0.57165575  0.68777067    -0.38080
N1544       N  0.45724909  0.63408971  0.80554889    -0.38080
C1545       C  0.27851739  0.52105017  0.86701060    -0.04740
C1546       C  0.27837172  0.98876365  0.85165233    -0.01860
C1547       C  0.24997199  0.96847262  0.85125750     0.03130
C1548       C  0.22045258  0.97930809  0.86696676    -0.04740
C1549       C  0.22035714  0.01224318  0.88099484    -0.01850
C1550       C  0.24862299  0.53267603  0.88067685     0.03120
C1551       C  0.30755298  0.97612270  0.83540432     0.37770
C1552       C  0.19131846  0.52564863  0.89689086     0.37760
C1553       C  0.24652726  0.56576063  0.89561245     0.36190
C1554       C  0.25172708  0.93624899  0.83409222     0.36190
N1555       N  0.24412821  0.59221113  0.90724432    -0.38630
N1556       N  0.25336303  0.91060642  0.82026784    -0.38630
N1557       N  0.16835630  0.53660466  0.90971097    -0.38080
N1558       N  0.33075700  0.96593921  0.82238964    -0.38080
C1559       C  0.36449166  0.94284413  0.04440840    -0.04740
C1560       C  0.34701212  0.94532218  0.01165065    -0.01860
C1561       C  0.35223012  0.97176825  0.98788236     0.03130
C1562       C  0.37928095  0.99244246  0.99223465    -0.04740
C1563       C  0.39701309  0.99055510  0.02478284    -0.01850
C1564       C  0.38803591  0.96753522  0.05164132     0.03120
C1565       C  0.32697830  0.91916850  0.99772589     0.37770
C1566       C  0.42509606  0.51153515  0.03060096     0.37760
C1567       C  0.40250964  0.97063000  0.08688875     0.36190
C1568       C  0.32930881  0.97737009  0.95879994     0.36190
N1569       N  0.41424688  0.97550704  0.11466644    -0.38630
N1570       N  0.31064111  0.98155036  0.93610443    -0.38630
N1571       N  0.44760141  0.52808012  0.03524848    -0.38080
N1572       N  0.31173248  0.90112462  0.98052890    -0.38080
C1573       C  0.38986824  0.69174262  0.95072243    -0.04740
C1574       C  0.37657705  0.72244715  0.94149346    -0.01860
C1575       C  0.38030702  0.74982256  0.96505926     0.03130
C1576       C  0.39354041  0.74546940  0.00043886    -0.04740
C1577       C  0.41081750  0.71613149  0.00704759    -0.01850
C1578       C  0.41017036  0.69014292  0.98165637     0.03120
C1579       C  0.35766058  0.72553423  0.90884315     0.37770
C1580       C  0.43019633  0.71270698  0.03940892     0.37760
C1581       C  0.42983817  0.66121012  0.98855693     0.36190
C1582       C  0.37182040  0.78231836  0.95157761     0.36190
N1583       N  0.44627426  0.63905967  0.99556932    -0.38630
N1584       N  0.36564732  0.80824655  0.94031845    -0.38630
N1585       N  0.44575276  0.70986782  0.06509632    -0.38080
N1586       N  0.34244082  0.72798864  0.88286487    -0.38080
C1587       C  0.13478136  0.61003850  0.28572168    -0.04740
C1588       C  0.13883798  0.64421605  0.27674099    -0.01860
C1589       C  0.13700039  0.65487444  0.24066946     0.03130
C1590       C  0.12897988  0.63226040  0.21301441    -0.04740
C1591       C  0.12107633  0.59920196  0.22230941    -0.01850
C1592       C  0.12478920  0.58789878  0.25799814     0.03120
C1593       C  0.14515403  0.66913444  0.30416587     0.37770
C1594       C  0.10930300  0.57638212  0.19491641     0.37760
C1595       C  0.11916188  0.55301816  0.26520808     0.36190
C1596       C  0.14548587  0.68892112  0.23209279     0.36190
N1597       N  0.11475064  0.52513346  0.27061687    -0.38630
N1598       N  0.15244388  0.71600937  0.22537528    -0.38630
N1599       N  0.09998560  0.55819668  0.17310221    -0.38080
N1600       N  0.15016602  0.68915461  0.32581509    -0.38080
C1601       C  0.28536863  0.76226684  0.13285445    -0.04740
C1602       C  0.25466512  0.77737858  0.12899242    -0.01860
C1603       C  0.22565435  0.75828333  0.12828509     0.03130
C1604       C  0.22594317  0.72328524  0.13326559    -0.04740
C1605       C  0.25665785  0.70860329  0.14011903    -0.01850
C1606       C  0.28576043  0.72770673  0.13934614     0.03120
C1607       C  0.25226609  0.81302785  0.12579686     0.37770
C1608       C  0.25904115  0.67360680  0.14820935     0.37760
C1609       C  0.31627057  0.71171771  0.14685838     0.36190
C1610       C  0.19545356  0.77547033  0.12234285     0.36190
N1611       N  0.34058492  0.69899409  0.15304710    -0.38630
N1612       N  0.17155156  0.78939826  0.11733177    -0.38630
N1613       N  0.26133432  0.64579195  0.15516327    -0.38080
N1614       N  0.24947356  0.84145801  0.12401779    -0.38080
C1615       C  0.13351023  0.54289007  0.04852755    -0.04740
C1616       C  0.16101233  0.52745955  0.03383177    -0.01860
C1617       C  0.15794298  0.00450150  0.00524976     0.03130
C1618       C  0.12723741  0.99429577  0.99285929    -0.04740
C1619       C  0.09965898  0.50650552  0.01041675    -0.01850
C1620       C  0.10286370  0.53016319  0.03846407     0.03120
C1621       C  0.19225514  0.53167412  0.05034263     0.37770
C1622       C  0.06807437  0.99393385  0.00044322     0.37760
C1623       C  0.07516517  0.53852768  0.06006602     0.36190
C1624       C  0.18668181  0.99134037  0.98834361     0.36190
N1625       N  0.05351746  0.54424050  0.07846764    -0.38630
N1626       N  0.20953831  0.98090499  0.97479816    -0.38630
N1627       N  0.04287870  0.98387172  0.99244032    -0.38080
N1628       N  0.21750034  0.53202933  0.06351656    -0.38080
C1629       C  0.13189221  0.74432389  0.00592010    -0.04740
C1630       C  0.16270013  0.75609787  0.99599298    -0.01860
C1631       C  0.16624824  0.77843050  0.96696948     0.03130
C1632       C  0.13892224  0.79188803  0.94969716    -0.04740
C1633       C  0.10873036  0.77686793  0.95653642    -0.01850
C1634       C  0.10504047  0.75363360  0.98481286     0.03120
C1635       C  0.19100077  0.74472765  0.01539255     0.37770
C1636       C  0.08278319  0.78249899  0.93121530     0.37760
C1637       C  0.07396385  0.73835665  0.99140753     0.36190
C1638       C  0.19769712  0.78250735  0.95133323     0.36190
N1639       N  0.04933923  0.72583510  0.99693608    -0.38630
N1640       N  0.22294550  0.78248370  0.93842103    -0.38630
N1641       N  0.06305524  0.78664849  0.90965988    -0.38080
N1642       N  0.21348905  0.73563811  0.03092781    -0.38080
C1643       C  0.28564685  0.61017568  0.98617965    -0.04740
C1644       C  0.26458442  0.63569035  0.97361094    -0.01860
C1645       C  0.23475551  0.63982782  0.98963638     0.03130
C1646       C  0.22885695  0.62407621  0.02225245    -0.04740
C1647       C  0.25239520  0.60400946  0.03881393    -0.01850
C1648       C  0.27940767  0.59453774  0.01935014     0.03120
C1649       C  0.27357885  0.65937229  0.94585943     0.37770
C1650       C  0.24954973  0.59397191  0.07616788     0.37760
C1651       C  0.30038454  0.56922600  0.03413604     0.36190
C1652       C  0.21115454  0.66208990  0.97381708     0.36190
N1653       N  0.31687046  0.54895431  0.04608030    -0.38630
N1654       N  0.19248272  0.67963232  0.96083900    -0.38630
N1655       N  0.24751144  0.58624673  0.10600461    -0.38080
N1656       N  0.28062830  0.67843261  0.92402641    -0.38080
C1657       C  0.97493864  0.88367096  0.58898341    -0.04740
C1658       C  0.98018485  0.85724797  0.61316054    -0.01860
C1659       C  0.00953699  0.83938967  0.61273528     0.03130
C1660       C  0.03248169  0.84506037  0.58524839    -0.04740
C1661       C  0.02540007  0.86980263  0.55909460    -0.01850
C1662       C  0.99806688  0.89020707  0.56247631     0.03120
C1663       C  0.95397819  0.84600027  0.63575332     0.37770
C1664       C  0.04418750  0.87307272  0.52666090     0.37760
C1665       C  0.99259432  0.91692246  0.53704465     0.36190
C1666       C  0.01463724  0.81337430  0.63891401     0.36190
N1667       N  0.98825001  0.93824287  0.51687863    -0.38630
N1668       N  0.01856596  0.79264975  0.65989734    -0.38630
N1669       N  0.05766564  0.87553936  0.49969625    -0.38080
N1670       N  0.93280675  0.83634137  0.65299401    -0.38080
C1671       C  0.53513817  0.84186715  0.41363471    -0.04740
C1672       C  0.52571594  0.86084469  0.44423999    -0.01860
C1673       C  0.49936306  0.88289586  0.44259588     0.03130
C1674       C  0.47935155  0.88436282  0.41189049    -0.04740
C1675       C  0.48860877  0.86606720  0.38109744    -0.01850
C1676       C  0.51644588  0.84556462  0.38170401     0.03120
C1677       C  0.54193431  0.85747033  0.47859627     0.37770
C1678       C  0.46907542  0.86736853  0.34874807     0.37760
C1679       C  0.52485278  0.82753786  0.34936794     0.36190
C1680       C  0.49329062  0.90490898  0.47272754     0.36190
N1681       N  0.53140958  0.81330479  0.32341424    -0.38630
N1682       N  0.48880091  0.92261810  0.49663748    -0.38630
N1683       N  0.45386994  0.86823505  0.32264520    -0.38080
N1684       N  0.55379001  0.85475396  0.50660285    -0.38080
C1685       C  0.72173508  0.87261893  0.48265721    -0.04740
C1686       C  0.72445433  0.86716021  0.51965813    -0.01860
C1687       C  0.75117107  0.87981808  0.53807752     0.03130
C1688       C  0.77758957  0.89345550  0.51850586    -0.04740
C1689       C  0.77298408  0.90235129  0.48227213    -0.01850
C1690       C  0.74436469  0.89299794  0.46475117     0.03120
C1691       C  0.70151601  0.84603574  0.53831644     0.37770
C1692       C  0.79749715  0.91992266  0.46229181     0.37760
C1693       C  0.73860319  0.90366902  0.42800574     0.36190
C1694       C  0.75161679  0.87694876  0.57701307     0.36190
N1695       N  0.73398638  0.91215566  0.39875954    -0.38630
N1696       N  0.75114351  0.87392864  0.60791812    -0.38630
N1697       N  0.81617669  0.93420452  0.44527094    -0.38080
N1698       N  0.68362349  0.82883161  0.55318224    -0.38080
C1699       C  0.47726691  0.63784555  0.58410461    -0.04740
C1700       C  0.49547899  0.63818360  0.55222709    -0.01860
C1701       C  0.52351226  0.61896665  0.54921261     0.03130
C1702       C  0.53643599  0.60231970  0.57965472    -0.04740
C1703       C  0.51907208  0.60354469  0.61235700    -0.01850
C1704       C  0.48894790  0.61993126  0.61398639     0.03120
C1705       C  0.48502368  0.65816193  0.52195279     0.37770
C1706       C  0.53202347  0.58832120  0.64454597     0.37760
C1707       C  0.46904931  0.61612732  0.64551630     0.36190
C1708       C  0.53816062  0.61561755  0.51399785     0.36190
N1709       N  0.45329901  0.61200083  0.67065426    -0.38630
N1710       N  0.54968560  0.61293347  0.48589567    -0.38630
N1711       N  0.54222843  0.57636378  0.67041199    -0.38080
N1712       N  0.47701039  0.67424654  0.49785947    -0.38080
C1713       C  0.72479776  0.50961878  0.63109081    -0.04740
C1714       C  0.73414011  0.99325912  0.59916670    -0.01860
C1715       C  0.76323142  0.97503426  0.59763774     0.03130
C1716       C  0.78169006  0.96878746  0.62894598    -0.04740
C1717       C  0.77282810  0.98558265  0.66086645    -0.01850
C1718       C  0.74519067  0.50665461  0.66159790     0.03120
C1719       C  0.71475472  0.99669494  0.56683407     0.37770
C1720       C  0.79283626  0.98211742  0.69257372     0.37760
C1721       C  0.73811921  0.52579614  0.69348006     0.36190
C1722       C  0.77687295  0.96804827  0.56279048     0.36190
N1723       N  0.73270434  0.54139482  0.71883223    -0.38630
N1724       N  0.78795789  0.96509994  0.53454590    -0.38630
N1725       N  0.80903338  0.47942753  0.71777964    -0.38080
N1726       N  0.69949325  0.99903720  0.54088081    -0.38080
C1727       C  0.62049540  0.98497349  0.50914275    -0.04740
C1728       C  0.62012075  0.99023392  0.47106402    -0.01860
C1729       C  0.62424922  0.96346197  0.44680892     0.03130
C1730       C  0.62638298  0.93089452  0.45967630    -0.04740
C1731       C  0.62399786  0.92533126  0.49732369    -0.01850
C1732       C  0.62272969  0.95200859  0.52173952     0.03120
C1733       C  0.61487559  0.52289048  0.45601261     0.37770
C1734       C  0.62234203  0.89212228  0.51205296     0.37760
C1735       C  0.62350372  0.94478126  0.56001599     0.36190
C1736       C  0.62463992  0.96920461  0.40834815     0.36190
N1737       N  0.62448928  0.93875133  0.59039240    -0.38630
N1738       N  0.62484039  0.97373692  0.37766308    -0.38630
N1739       N  0.62083592  0.86631781  0.52547252    -0.38080
N1740       N  0.61014246  0.54873235  0.44370789    -0.38080
C1741       C  0.63561985  0.73612576  0.48912163    -0.04740
C1742       C  0.60930771  0.72436233  0.50945003    -0.01860
C1743       C  0.61441167  0.70158185  0.53774539     0.03130
C1744       C  0.64569660  0.68984594  0.54540826    -0.04740
C1745       C  0.67212737  0.70307389  0.52637674    -0.01850
C1746       C  0.66716600  0.72637167  0.49872304     0.03120
C1747       C  0.57704408  0.73589154  0.50140924     0.37770
C1748       C  0.70439103  0.69117609  0.53399772     0.37760
C1749       C  0.69461776  0.73997472  0.47966615     0.36190
C1750       C  0.58741243  0.68958200  0.55865837     0.36190
N1751       N  0.71652571  0.75092803  0.46460104    -0.38630
N1752       N  0.56593991  0.68043788  0.57575858    -0.38630
N1753       N  0.73008142  0.68159292  0.54001719    -0.38080
N1754       N  0.55129969  0.74507408  0.49494010    -0.38080
C1755       C  0.97793804  0.63360527  0.41236715    -0.04740
C1756       C  0.98405127  0.60606161  0.43533868    -0.01860
C1757       C  0.01095175  0.58545309  0.43010568     0.03130
C1758       C  0.03485209  0.59399498  0.40517646    -0.04740
C1759       C  0.02972878  0.62175273  0.38263004    -0.01850
C1760       C  0.00107664  0.64083147  0.38547637     0.03120
C1761       C  0.96461318  0.59936336  0.46656869     0.37770
C1762       C  0.05489997  0.63224363  0.35825345     0.37760
C1763       C  0.99697745  0.66960439  0.36270766     0.36190
C1764       C  0.01432787  0.55522010  0.45100130     0.36190
N1765       N  0.99386455  0.69268051  0.34464283    -0.38630
N1766       N  0.01695828  0.53104429  0.46739695    -0.38630
N1767       N  0.07496575  0.64099536  0.33894893    -0.38080
N1768       N  0.95115039  0.59320971  0.49281312    -0.38080
C1769       C  0.78483218  0.71946298  0.37023758    -0.04740
C1770       C  0.75837751  0.71198080  0.34695868    -0.01860
C1771       C  0.72963628  0.73157847  0.34755999     0.03130
C1772       C  0.72823033  0.76150721  0.36771488    -0.04740
C1773       C  0.75535806  0.76910316  0.38956588    -0.01850
C1774       C  0.78037274  0.74587977  0.39448839     0.03120
C1775       C  0.75956404  0.68314817  0.32381026     0.37770
C1776       C  0.75845790  0.80050108  0.40785602     0.37760
C1777       C  0.79495330  0.74365766  0.42974664     0.36190
C1778       C  0.70151073  0.72051585  0.32765189     0.36190
N1779       N  0.80440002  0.74020746  0.45876669    -0.38630
N1780       N  0.67905661  0.71101638  0.31214001    -0.38630
N1781       N  0.76344300  0.82554235  0.42195935    -0.38080
N1782       N  0.76019953  0.66004250  0.30537836    -0.38080
C1783       C  0.87517715  0.54895098  0.46380268    -0.04740
C1784       C  0.88039644  0.55565833  0.50095938    -0.01860
C1785       C  0.88356358  0.52971749  0.52592952     0.03130
C1786       C  0.88412791  0.99654139  0.51407259    -0.04740
C1787       C  0.88075073  0.99000678  0.47638660    -0.01850
C1788       C  0.87482195  0.51600764  0.45187104     0.03120
C1789       C  0.88453477  0.58922603  0.51419911     0.37770
C1790       C  0.88464111  0.95688013  0.46188878     0.37760
C1791       C  0.87010525  0.00903403  0.41392406     0.36190
C1792       C  0.88810019  0.53774715  0.56372003     0.36190
N1793       N  0.86628462  0.00356841  0.38366770    -0.38630
N1794       N  0.89165004  0.54435468  0.59375364    -0.38630
N1795       N  0.88831717  0.93063653  0.45005973    -0.38080
N1796       N  0.88927404  0.61539978  0.52590663    -0.38080
C1797       C  0.88648614  0.74296837  0.49187553    -0.04740
C1798       C  0.86868076  0.77043913  0.48073648    -0.01860
C1799       C  0.85501996  0.79118804  0.50655620     0.03130
C1800       C  0.86694032  0.79164435  0.54243577    -0.04740
C1801       C  0.88789776  0.76614148  0.55329318    -0.01850
C1802       C  0.89598008  0.74063024  0.52857856     0.03120
C1803       C  0.86419462  0.77760701  0.44281082     0.37770
C1804       C  0.90169982  0.76655590  0.58907301     0.37760
C1805       C  0.91570177  0.71312625  0.54026543     0.36190
C1806       C  0.82876692  0.81256248  0.49568442     0.36190
N1807       N  0.93149888  0.69116876  0.54950969    -0.38630
N1808       N  0.80749273  0.82882375  0.48636424    -0.38630
N1809       N  0.91288890  0.76675723  0.61760428    -0.38080
N1810       N  0.86089925  0.78374333  0.41265850    -0.38080
C1811       C  0.78551253  0.61339432  0.48145623    -0.04740
C1812       C  0.75971599  0.59953296  0.46092563    -0.01860
C1813       C  0.73291886  0.58601554  0.47845457     0.03130
C1814       C  0.73303743  0.58402147  0.51618211    -0.04740
C1815       C  0.76163816  0.59106077  0.53552010    -0.01850
C1816       C  0.78640481  0.60873257  0.51894021     0.03120
C1817       C  0.76001901  0.59944075  0.42184834     0.37770
C1818       C  0.76497248  0.58187079  0.57306647     0.37760
C1819       C  0.81066754  0.62476985  0.54127632     0.36190
C1820       C  0.70489182  0.57601107  0.45755096     0.36190
N1821       N  0.82921847  0.63802501  0.55970749    -0.38630
N1822       N  0.68273121  0.56820797  0.44050539    -0.38630
N1823       N  0.76848411  0.57466462  0.60289161    -0.38080
N1824       N  0.76008508  0.59939697  0.39075099    -0.38080
C1825       C  0.53451834  0.88776829  0.09969473    -0.04740
C1826       C  0.50445736  0.90351615  0.09939569    -0.01860
C1827       C  0.47612610  0.88413653  0.09924035     0.03130
C1828       C  0.47724094  0.84958468  0.09393250    -0.04740
C1829       C  0.50698274  0.83357122  0.09801231    -0.01850
C1830       C  0.53528096  0.85276758  0.10361384     0.03120
C1831       C  0.50262306  0.93932045  0.10020303     0.37770
C1832       C  0.50843675  0.79776523  0.09683516     0.37760
C1833       C  0.56387570  0.83689505  0.11751524     0.36190
C1834       C  0.44596834  0.89829514  0.10974885     0.36190
N1835       N  0.58597763  0.82385399  0.13008210    -0.38630
N1836       N  0.42131593  0.90690113  0.12019443    -0.38630
N1837       N  0.50962947  0.76914785  0.09576716    -0.38080
N1838       N  0.50110035  0.96792718  0.10090114    -0.38080
C1839       C  0.63516667  0.87458501  0.21149746    -0.04740
C1840       C  0.62020484  0.89389070  0.23870893    -0.01860
C1841       C  0.61856652  0.88229264  0.27467252     0.03130
C1842       C  0.63200067  0.85142853  0.28442698    -0.04740
C1843       C  0.64559432  0.83152514  0.25740176    -0.01850
C1844       C  0.64677689  0.84248812  0.22139587     0.03120
C1845       C  0.60622621  0.92580037  0.23026141     0.37770
C1846       C  0.66069969  0.80038507  0.26688718     0.37760
C1847       C  0.66101483  0.82016710  0.19527267     0.36190
C1848       C  0.60268787  0.90216382  0.30180651     0.36190
N1849       N  0.67233558  0.80211188  0.17476076    -0.38630
N1850       N  0.58996090  0.91791278  0.32346833    -0.38630
N1851       N  0.67308515  0.77566073  0.27401850    -0.38080
N1852       N  0.59504414  0.95131589  0.22377453    -0.38080
C1853       C  0.97434932  0.84567938  0.91595558    -0.04740
C1854       C  0.97694661  0.87577413  0.89659913    -0.01860
C1855       C  0.00609437  0.89440477  0.89716289     0.03130
C1856       C  0.03191799  0.88487291  0.91983701    -0.04740
C1857       C  0.02776923  0.85604648  0.94144925    -0.01850
C1858       C  0.00060310  0.83536137  0.93681729     0.03120
C1859       C  0.94924331  0.88850237  0.87734740     0.37770
C1860       C  0.05037672  0.84760561  0.96978622     0.37760
C1861       C  0.00122994  0.80182722  0.95039283     0.36190
C1862       C  0.00851256  0.92456682  0.87625633     0.36190
N1863       N  0.00315857  0.77447765  0.95922432    -0.38630
N1864       N  0.01036856  0.94866588  0.85958387    -0.38630
N1865       N  0.06748591  0.84082485  0.99326500    -0.38080
N1866       N  0.92727150  0.89929483  0.86223431    -0.38080
C1867       C  0.87523698  0.85684498  0.78864936    -0.04740
C1868       C  0.84602713  0.86683890  0.77234803    -0.01860
C1869       C  0.84552095  0.87740416  0.73639765     0.03130
C1870       C  0.87457400  0.88068219  0.71693788    -0.04740
C1871       C  0.90419813  0.87480560  0.73474578    -0.01850
C1872       C  0.90443540  0.86130896  0.76991295     0.03120
C1873       C  0.81640626  0.86756087  0.79298106     0.37770
C1874       C  0.93430521  0.88382664  0.71778407     0.37760
C1875       C  0.93471067  0.85326698  0.78726582     0.36190
C1876       C  0.81491822  0.88631569  0.71995183     0.36190
N1877       N  0.95895519  0.84682503  0.80097718    -0.38630
N1878       N  0.79052973  0.89329059  0.70687961    -0.38630
N1879       N  0.95848154  0.89171035  0.70490844    -0.38080
N1880       N  0.79301551  0.86918760  0.80967319    -0.38080
C1881       C  0.77751516  0.85429296  0.97776964    -0.04740
C1882       C  0.75465161  0.87464896  0.96010511    -0.01860
C1883       C  0.72498986  0.88098660  0.97629317     0.03130
C1884       C  0.71871886  0.86762238  0.01027779    -0.04740
C1885       C  0.74177918  0.84749378  0.02803232    -0.01850
C1886       C  0.77118688  0.84080813  0.01163390     0.03120
C1887       C  0.76227493  0.89055648  0.92615300     0.37770
C1888       C  0.73637521  0.83548472  0.06430784     0.37760
C1889       C  0.79492450  0.82034243  0.02973153     0.36190
C1890       C  0.70215360  0.90332366  0.95943199     0.36190
N1891       N  0.81381793  0.80419570  0.04436264    -0.38630
N1892       N  0.68403887  0.92127712  0.94612855    -0.38630
N1893       N  0.73279176  0.82676062  0.09361393    -0.38080
N1894       N  0.76837392  0.90329094  0.89917542    -0.38080
C1895       C  0.53511679  0.63173263  0.91979590    -0.04740
C1896       C  0.50961495  0.64677792  0.90063956    -0.01860
C1897       C  0.47938939  0.63070173  0.89795531     0.03130
C1898       C  0.47511605  0.59805812  0.91106630    -0.04740
C1899       C  0.50046339  0.58263938  0.92938462    -0.01850
C1900       C  0.52934875  0.60011251  0.93602986     0.03120
C1901       C  0.51326203  0.68001452  0.88636160     0.37770
C1902       C  0.49570153  0.54967335  0.94419115     0.37760
C1903       C  0.55121899  0.58630900  0.96253624     0.36190
C1904       C  0.45212279  0.64887732  0.88378193     0.36190
N1905       N  0.56782509  0.57568186  0.98470890    -0.38630
N1906       N  0.43089945  0.66417025  0.87246644    -0.38630
N1907       N  0.49188266  0.52340427  0.95587108    -0.38080
N1908       N  0.51599562  0.70655190  0.87501695    -0.38080
C1909       C  0.62403830  0.62351373  0.78484666    -0.04740
C1910       C  0.63158366  0.59006255  0.77589017    -0.01860
C1911       C  0.63250871  0.57968955  0.73976048     0.03130
C1912       C  0.62410442  0.60173849  0.71208300    -0.04740
C1913       C  0.61238327  0.63347523  0.72095559    -0.01850
C1914       C  0.61239351  0.64445958  0.75716699     0.03120
C1915       C  0.63891241  0.56587583  0.80358876     0.37770
C1916       C  0.60047894  0.65482217  0.69260970     0.37760
C1917       C  0.60131644  0.67757932  0.76538103     0.36190
C1918       C  0.64450069  0.54691394  0.73094398     0.36190
N1919       N  0.59222154  0.70396730  0.77184008    -0.38630
N1920       N  0.65427713  0.52092323  0.72387603    -0.38630
N1921       N  0.59074545  0.67163445  0.66991578    -0.38080
N1922       N  0.64495504  0.54640426  0.82535328    -0.38080
C1923       C  0.72736943  0.71759187  0.86788756    -0.04740
C1924       C  0.75313731  0.71356749  0.89231988    -0.01860
C1925       C  0.78332434  0.72886253  0.88679213     0.03130
C1926       C  0.78653969  0.75604518  0.86295272    -0.04740
C1927       C  0.75996307  0.76205586  0.83942046    -0.01850
C1928       C  0.73118448  0.74214799  0.84102320     0.03120
C1929       C  0.74719956  0.69966797  0.92730217     0.37770
C1930       C  0.76298694  0.78650982  0.81130965     0.37760
C1931       C  0.70547266  0.74714138  0.81521053     0.36190
C1932       C  0.81105334  0.71481431  0.90492472     0.36190
N1933       N  0.68488053  0.75109983  0.79462009    -0.38630
N1934       N  0.83319726  0.70262294  0.91838663    -0.38630
N1935       N  0.76488927  0.80533684  0.78802195    -0.38080
N1936       N  0.74343481  0.69122332  0.95659255    -0.38080
C1937       C  0.62757361  0.99348705  0.00694530    -0.04740
C1938       C  0.65840295  0.50766277  0.00221790    -0.01860
C1939       C  0.66495549  0.52786094  0.97219947     0.03130
C1940       C  0.64027913  0.53640281  0.94776378    -0.04740
C1941       C  0.61035248  0.51996533  0.95041780    -0.01850
C1942       C  0.60403443  0.99840637  0.97972977     0.03120
C1943       C  0.68375511  0.00131301  0.02811507     0.37770
C1944       C  0.58636726  0.52515240  0.92263724     0.37760
C1945       C  0.57325139  0.98146246  0.98205578     0.36190
C1946       C  0.69748636  0.53970375  0.96612030     0.36190
N1947       N  0.54869166  0.96788153  0.98393294    -0.38630
N1948       N  0.72381199  0.54796131  0.96114788    -0.38630
N1949       N  0.56740141  0.52917721  0.90019984    -0.38080
N1950       N  0.70425575  0.99683101  0.04861872    -0.38080
C1951       C  0.62848721  0.74658386  0.98652488    -0.04740
C1952       C  0.65254755  0.74778277  0.01370861    -0.01860
C1953       C  0.65160329  0.77189846  0.04113900     0.03130
C1954       C  0.62768205  0.79662991  0.04085324    -0.04740
C1955       C  0.60228728  0.79399862  0.01474501    -0.01850
C1956       C  0.60294086  0.76922300  0.98784440     0.03120
C1957       C  0.67864682  0.72403837  0.01398963     0.37770
C1958       C  0.57470357  0.81597905  0.01533431     0.37760
C1959       C  0.57638979  0.76597974  0.96248778     0.36190
C1960       C  0.67425205  0.76959007  0.07083416     0.36190
N1961       N  0.55513959  0.76323497  0.94244187    -0.38630
N1962       N  0.69205424  0.76680618  0.09463558    -0.38630
N1963       N  0.55252338  0.83323566  0.01559944    -0.38080
N1964       N  0.69978162  0.70555013  0.01549455    -0.38080
C1965       C  0.98045896  0.59321865  0.08746025    -0.04740
C1966       C  0.98893090  0.61449888  0.11631241    -0.01860
C1967       C  0.01635116  0.63552942  0.11412621     0.03130
C1968       C  0.03573015  0.63614811  0.08267284    -0.04740
C1969       C  0.02704321  0.61444565  0.05383326    -0.01850
C1970       C  0.00022012  0.59294393  0.05661109     0.03120
C1971       C  0.96868924  0.61614295  0.14793975     0.37770
C1972       C  0.04580656  0.61291994  0.02099133     0.37760
C1973       C  0.99374238  0.56943649  0.02772892     0.36190
C1974       C  0.02373523  0.65703668  0.14438381     0.36190
N1975       N  0.98870893  0.55073016  0.00475030    -0.38630
N1976       N  0.02945345  0.67401583  0.16870766    -0.38630
N1977       N  0.06052997  0.61135857  0.99471296    -0.38080
N1978       N  0.95279505  0.61778006  0.17332331    -0.38080
C1979       C  0.87821335  0.60491394  0.21603481    -0.04740
C1980       C  0.89808923  0.58936921  0.24209524    -0.01860
C1981       C  0.89744461  0.59989053  0.27843359     0.03130
C1982       C  0.87818065  0.62694535  0.28883195    -0.04740
C1983       C  0.85954298  0.64345059  0.26283218    -0.01850
C1984       C  0.85832450  0.63172940  0.22721883     0.03120
C1985       C  0.91955232  0.56281877  0.23181575     0.37770
C1986       C  0.84067354  0.67221690  0.27287931     0.37760
C1987       C  0.83475879  0.64643746  0.20309520     0.36190
C1988       C  0.91722518  0.58340819  0.30512553     0.36190
N1989       N  0.81581476  0.65813838  0.18412265    -0.38630
N1990       N  0.93298413  0.57036780  0.32651761    -0.38630
N1991       N  0.82598493  0.69545344  0.28048900    -0.38080
N1992       N  0.93677693  0.54166885  0.22368945    -0.38080
C1993       C  0.78839859  0.50975154  0.13173643    -0.04740
C1994       C  0.78244175  0.98745971  0.10310801    -0.01860
C1995       C  0.75507647  0.96635008  0.10280661     0.03130
C1996       C  0.73005794  0.97007460  0.12827097    -0.04740
C1997       C  0.73447358  0.99439952  0.15544127    -0.01850
C1998       C  0.76366143  0.51343177  0.15776128     0.03120
C1999       C  0.80209500  0.98906577  0.07104184     0.37770
C2000       C  0.70913301  0.99945750  0.18146808     0.37760
C2001       C  0.76791468  0.53698233  0.18681184     0.36190
C2002       C  0.75310800  0.94181507  0.07457054     0.36190
N2003       N  0.77125489  0.55587967  0.20996726    -0.38630
N2004       N  0.75467184  0.92343046  0.05083495    -0.38630
N2005       N  0.68881080  0.50350509  0.20217135    -0.38080
N2006       N  0.81632004  0.99070987  0.04448736    -0.38080
C2007       C  0.87269974  0.93185085  0.96348814    -0.04740
C2008       C  0.87608032  0.92648306  0.00114537    -0.01860
C2009       C  0.88096288  0.95321276  0.02515638     0.03130
C2010       C  0.88514340  0.98572848  0.01201499    -0.04740
C2011       C  0.88439150  0.49063069  0.97399376    -0.01850
C2012       C  0.87709965  0.96410178  0.95016896     0.03120
C2013       C  0.87581350  0.89323936  0.01592699     0.37770
C2014       C  0.89314898  0.52248319  0.95881993     0.37760
C2015       C  0.87604871  0.96958556  0.91168583     0.36190
C2016       C  0.88068287  0.94694583  0.06357986     0.36190
N2017       N  0.87525677  0.97385497  0.88096069    -0.38630
N2018       N  0.88021055  0.94184381  0.09416150    -0.38630
N2019       N  0.90057628  0.54769619  0.94654669    -0.38080
N2020       N  0.87642822  0.86725132  0.02899646    -0.38080
C2021       C  0.87575100  0.68639941  0.04611110    -0.04740
C2022       C  0.84739489  0.69928719  0.03004113    -0.01860
C2023       C  0.84943968  0.72392177  0.00303170     0.03130
C2024       C  0.87975663  0.73589300  0.99127682    -0.04740
C2025       C  0.90724671  0.72696474  0.01143971    -0.01850
C2026       C  0.90559544  0.70161617  0.03759058     0.03120
C2027       C  0.81586170  0.68794953  0.04133438     0.37770
C2028       C  0.93581289  0.74746826  0.00995298     0.37760
C2029       C  0.93460110  0.69242783  0.05706301     0.36190
C2030       C  0.82007782  0.73867993  0.98916820     0.36190
N2031       N  0.95774404  0.68515797  0.07254555    -0.38630
N2032       N  0.79665803  0.75077291  0.97862159    -0.38630
N2033       N  0.95815823  0.76459178  0.01134571    -0.38080
N2034       N  0.79040161  0.67985449  0.05042175    -0.38080
C2035       C  0.78538095  0.60336550  0.02166334    -0.04740
C2036       C  0.78694898  0.60569996  0.98398688    -0.01860
C2037       C  0.76035136  0.61694858  0.96497714     0.03130
C2038       C  0.73113250  0.62331262  0.98335802    -0.04740
C2039       C  0.72907330  0.61979189  0.02085971    -0.01850
C2040       C  0.75636556  0.61073669  0.04021272     0.03120
C2041       C  0.81546652  0.59577668  0.96418070     0.37770
C2042       C  0.69873448  0.62410662  0.03974827     0.37760
C2043       C  0.75416737  0.61019742  0.07926658     0.36190
C2044       C  0.76348178  0.62158616  0.92631280     0.36190
N2045       N  0.75222904  0.60980787  0.11027876    -0.38630
N2046       N  0.76627509  0.62505996  0.89562207    -0.38630
N2047       N  0.67469763  0.62748065  0.05492978    -0.38080
N2048       N  0.83795465  0.58806766  0.94800828    -0.38080
loop_ 
_geom_bond_atom_site_label_1 
_geom_bond_atom_site_label_2 
_geom_bond_distance 
_geom_bond_site_symmetry_2 
_ccdc_geom_bond_type 
Fe1          O17   2.092       .  S
Fe1           O7   2.139       .  S
Fe1          O14   2.143       .  S
Fe1           O6   2.094       .  S
Fe1          O12   1.907       .  S
Fe2           O5   2.030       .  S
Fe2           O9   2.055       .  S
Fe2          O13   2.024       .  S
Fe2          O18   2.062       .  S
Fe2          O12   1.920       .  S
Fe3          O21   2.138       .  S
Fe3           O8   1.990       .  S
Fe3          O15   2.025       .  S
Fe3           O4   2.109       .  S
Fe3          O12   1.904       .  S
O4           C11   1.276       .  A
O5           C19   1.262       .  A
O6           C11   1.278       .  A
O7           C10   1.286       .  A
O8           C20   1.250       .  A
O9           C22   1.270       .  A
C10          O15   1.266       .  A
C10         C955   1.506       .  S
C11         C969   1.524       .  S
O13          C16   1.262       .  A
O14          C16   1.288       .  A
C16        C2010   1.511   1_545  S
O17          C22   1.277       .  A
O18          C20   1.269       .  A
C19          O21   1.281       .  A
C19         C997   1.505       .  S
C20        C1011   1.453       .  S
C22         C941   1.500       .  S
Fe23         O39   2.108       .  S
Fe23         O29   2.128       .  S
Fe23         O36   2.114       .  S
Fe23         O28   2.104       .  S
Fe23         O34   1.964       .  S
Fe24         O27   2.023       .  S
Fe24         O31   2.002       .  S
Fe24         O35   2.023       .  S
Fe24         O40   2.034       .  S
Fe24         O34   1.955       .  S
Fe25         O43   1.992       .  S
Fe25         O30   2.110       .  S
Fe25         O37   2.106       .  S
Fe25         O26   2.020       .  S
Fe25         O34   1.958       .  S
O26          C33   1.256       .  A
O27          C41   1.260       .  A
O28          C33   1.271       .  A
O29          C32   1.286       .  A
O30          C42   1.279       .  A
O31          C44   1.249       .  A
C32          O37   1.283       .  A
C32         C899   1.526       .  S
C33         C885   1.508       .  S
O35          C38   1.266       .  A
O36          C38   1.287       .  A
C38         C871   1.504       .  S
O39          C44   1.271       .  A
O40          C42   1.261       .  A
C41          O43   1.251       .  A
C41        C1014   1.450       .  S
C42         C916   1.486       .  S
C44         C927   1.488       .  S
Fe45         O61   2.168       .  S
Fe45         O51   2.074       .  S
Fe45         O58   2.079       .  S
Fe45         O50   2.132       .  S
Fe45         O56   1.910       .  S
Fe46         O49   2.105       .  S
Fe46         O53   2.011       .  S
Fe46         O57   2.085       .  S
Fe46         O62   2.009       .  S
Fe46         O56   1.923       .  S
Fe47         O65   1.983       .  S
Fe47         O52   2.173       .  S
Fe47         O59   2.143       .  S
Fe47         O48   2.028       .  S
Fe47         O56   1.922       .  S
O48          C55   1.265       .  A
O49          C63   1.274       .  A
O50          C55   1.284       .  A
O51          C54   1.276       .  A
O52          C64   1.286       .  A
O53          C66   1.259       .  A
C54          O59   1.285       .  A
C54         C902   1.535       .  S
C55         C843   1.486       .  S
O57          C60   1.273       .  A
O58          C60   1.270       .  A
C60         C829   1.494       .  S
O61          C66   1.293       .  A
O62          C64   1.250       .  A
C63          O65   1.251       .  A
C63         C857   1.449       .  S
C64         C983   1.498       .  S
C66        C1000   1.498       .  S
Fe67         O83   2.096       .  S
Fe67         O73   2.139       .  S
Fe67         O80   2.159       .  S
Fe67         O72   2.104       .  S
Fe67         O78   1.919       .  S
Fe68         O71   2.004       .  S
Fe68         O75   2.064       .  S
Fe68         O79   2.009       .  S
Fe68         O84   2.096       .  S
Fe68         O78   1.945       .  S
Fe69         O87   2.136       .  S
Fe69         O74   1.978       .  S
Fe69         O81   2.029       .  S
Fe69         O70   2.117       .  S
Fe69         O78   1.914       .  S
O70          C77   1.278       .  A
O71          C85   1.250       .  A
O72          C77   1.278       .  A
O73          C76   1.287       .  A
O74          C86   1.253       .  A
O75          C88   1.268       .  A
C76          O81   1.266       .  A
C76         C815   1.523       .  S
C77         C972   1.522       .  S
O79          C82   1.261       .  A
O80          C82   1.292       .  A
C82         C913   1.492       .  S
O83          C88   1.272       .  A
O84          C86   1.273       .  A
C85          O87   1.278       .  A
C85         C930   1.507       .  S
C86         C860   1.450       .  S
C88         C801   1.491       .  S
Fe89        O105   2.110       .  S
Fe89         O95   2.105       .  S
Fe89        O102   2.129       .  S
Fe89         O94   2.117       .  S
Fe89        O100   1.900       .  S
Fe90         O93   2.012       .  S
Fe90         O97   2.074       .  S
Fe90        O101   2.012       .  S
Fe90        O106   2.097       .  S
Fe90        O100   1.923       .  S
Fe91        O109   2.146       .  S
Fe91         O96   2.012       .  S
Fe91        O103   2.050       .  S
Fe91         O92   2.107       .  S
Fe91        O100   1.931       .  S
O92          C99   1.277       .  A
O93         C107   1.250       .  A
O94          C99   1.285       .  A
O95          C98   1.281       .  A
O96         C108   1.254       .  A
O97         C110   1.269       .  A
C98         O103   1.271       .  A
C98         C958   1.484       .  S
C99         C745   1.533       .  S
O101        C104   1.262       .  A
O102        C104   1.285       .  A
C104        C773   1.485       .  S
O105        C110   1.278       .  A
O106        C108   1.271       .  A
C107        O109   1.280       .  A
C107        C759   1.487       .  S
C108        C787   1.469       .  S
C110        C731   1.519       .  S
Fe111       O127   2.083       .  S
Fe111       O117   2.111       .  S
Fe111       O124   2.142       .  S
Fe111       O116   2.081       .  S
Fe111       O122   1.925       .  S
Fe112       O115   2.043       .  S
Fe112       O119   2.037       .  S
Fe112       O123   2.024       .  S
Fe112       O128   2.027       .  S
Fe112       O122   1.939       .  S
Fe113       O131   2.049       .  S
Fe113       O118   2.105       .  S
Fe113       O125   2.102       .  S
Fe113       O114   2.056       .  S
Fe113       O122   1.935       .  S
O114        C121   1.266       .  A
O115        C129   1.274       .  A
O116        C121   1.272       .  A
O117        C120   1.282       .  A
O118        C130   1.272       .  A
O119        C132   1.248       .  A
C120        O125   1.278       .  A
C120        C689   1.516       .  S
C121        C888   1.486       .  S
O123        C126   1.274       .  A
O124        C126   1.295       .  A
C126        C678   1.503       .  S
O127        C132   1.264       .  A
O128        C130   1.253       .  A
C129        O131   1.275       .  A
C129        C790   1.466       .  S
C130        C720   1.477       .  S
C132       C1727   1.512   1_545  S
Fe133       O149   2.108       .  S
Fe133       O139   2.117       .  S
Fe133       O146   2.149       .  S
Fe133       O138   2.100       .  S
Fe133       O144   1.919       .  S
Fe134       O137   2.018       .  S
Fe134       O141   2.067       .  S
Fe134       O145   2.009       .  S
Fe134       O150   2.079       .  S
Fe134       O144   1.931       .  S
Fe135       O153   2.160       .  S
Fe135       O140   1.996       .  S
Fe135       O147   2.048       .  S
Fe135       O136   2.137       .  S
Fe135       O144   1.921       .  S
O136        C143   1.287       .  A
O137        C151   1.256       .  A
O138        C143   1.281       .  A
O139        C142   1.282       .  A
O140        C152   1.252       .  A
O141        C154   1.265       .  A
C142        O147   1.267       .  A
C142        C818   1.500       .  S
C143        C748   1.529       .  S
O145        C148   1.261       .  A
O146        C148   1.289       .  A
C148        C717   1.483       .  S
O149        C154   1.274       .  A
O150        C152   1.264       .  A
C151        O153   1.287       .  A
C151        C706   1.495       .  S
C152        C661   1.458       .  S
C154        C647   1.528       .  S
Fe155       O171   2.095       .  S
Fe155       O161   2.111       .  S
Fe155       O168   2.138       .  S
Fe155       O160   2.089       .  S
Fe155       O166   1.938       .  S
Fe156       O159   2.089       .  S
Fe156       O163   2.015       .  S
Fe156       O167   2.029       .  S
Fe156       O172   1.996       .  S
Fe156       O166   1.941       .  S
Fe157       O175   2.022       .  S
Fe157       O162   2.122       .  S
Fe157       O169   2.117       .  S
Fe157       O158   2.049       .  S
Fe157       O166   1.935       .  S
O158        C165   1.267       .  A
O159        C173   1.279       .  A
O160        C165   1.272       .  A
O161        C164   1.280       .  A
O162        C174   1.280       .  A
O163        C176   1.243       .  A
C164        O169   1.282       .  A
C164        C692   1.521       .  S
C165        C846   1.491       .  S
O167        C170   1.273       .  A
O168        C170   1.293       .  A
C170        C633   1.486       .  S
O171        C176   1.265       .  A
O172        C174   1.255       .  A
C173        O175   1.260       .  A
C173        C664   1.481       .  S
C174        C776   1.491       .  S
C176        C762   1.502       .  S
Fe177       O193   2.086       .  S
Fe177       O183   2.118       .  S
Fe177       O190   2.139       .  S
Fe177       O182   2.095       .  S
Fe177       O188   1.914       .  S
Fe178       O181   2.044       .  S
Fe178       O185   2.069       .  S
Fe178       O189   2.035       .  S
Fe178       O194   2.073       .  S
Fe178       O188   1.925       .  S
Fe179       O197   2.151       .  S
Fe179       O184   1.975       .  S
Fe179       O191   2.023       .  S
Fe179       O180   2.119       .  S
Fe179       O188   1.917       .  S
O180        C187   1.280       .  A
O181        C195   1.265       .  A
O182        C187   1.278       .  A
O183        C186   1.283       .  A
O184        C196   1.251       .  A
O185        C198   1.267       .  A
C186        O191   1.266       .  A
C186        C566   1.496       .  S
C187        C580   1.543       .  S
O189        C192   1.264       .  A
O190        C192   1.284       .  A
C192        C605   1.494       .  S
O193        C198   1.274       .  A
O194        C196   1.272       .  A
C195        O197   1.284       .  A
C195        C591   1.511       .  S
C196        C622   1.433       .  S
C198        C944   1.516       .  S
Fe199       O215   2.076       .  S
Fe199       O205   2.110       .  S
Fe199       O212   2.129       .  S
Fe199       O204   2.079       .  S
Fe199       O210   1.929       .  S
Fe200       O203   2.028       .  S
Fe200       O207   2.018       .  S
Fe200       O211   2.014       .  S
Fe200       O216   2.005       .  S
Fe200       O210   1.950       .  S
Fe201       O219   2.014       .  S
Fe201       O206   2.139       .  S
Fe201       O213   2.125       .  S
Fe201       O202   2.041       .  S
Fe201       O210   1.920       .  S
O202        C209   1.262       .  A
O203        C217   1.275       .  A
O204        C209   1.268       .  A
O205        C208   1.284       .  A
O206        C218   1.278       .  A
O207        C220   1.246       .  A
C208        O213   1.286       .  A
C208        C521   1.544       .  S
C209        C507   1.474       .  S
O211        C214   1.269       .  A
O212        C214   1.292       .  A
C214        C874   1.475       .  S
O215        C220   1.264       .  A
O216        C218   1.243       .  A
C217        O219   1.265       .  A
C217        C619   1.466       .  S
C218        C549   1.494       .  S
C220       C1562   1.489   1_545  S
Fe221       O237   2.134       .  S
Fe221       O227   2.106       .  S
Fe221       O234   2.108       .  S
Fe221       O226   2.121       .  S
Fe221       O232   1.921       .  S
Fe222       O225   2.058       .  S
Fe222       O229   2.033       .  S
Fe222       O233   2.066       .  S
Fe222       O238   2.047       .  S
Fe222       O232   1.931       .  S
Fe223       O241   2.001       .  S
Fe223       O228   2.150       .  S
Fe223       O235   2.115       .  S
Fe223       O224   2.049       .  S
Fe223       O232   1.930       .  S
O224        C231   1.269       .  A
O225        C239   1.268       .  A
O226        C231   1.283       .  A
O227        C230   1.279       .  A
O228        C240   1.283       .  A
O229        C242   1.265       .  A
C230        O235   1.280       .  A
C230        C524   1.550       .  S
C231        C479   1.494       .  S
O233        C236   1.266       .  A
O234        C236   1.279       .  A
C236        C832   1.509       .  S
O237        C242   1.283       .  A
O238        C240   1.266       .  A
C239        O241   1.254       .  A
C239        C493   1.439       .  S
C240        C608   1.510       .  S
C242        C594   1.493       .  S
Fe243       O259   2.086       .  S
Fe243       O249   2.126       .  S
Fe243       O256   2.133       .  S
Fe243       O248   2.113       .  S
Fe243       O254   1.922       .  S
Fe244       O247   2.022       .  S
Fe244       O251   2.085       .  S
Fe244       O255   2.006       .  S
Fe244       O260   2.092       .  S
Fe244       O254   1.929       .  S
Fe245       O263   2.154       .  S
Fe245       O250   1.979       .  S
Fe245       O257   2.034       .  S
Fe245       O246   2.106       .  S
Fe245       O254   1.941       .  S
O246        C253   1.275       .  A
O247        C261   1.253       .  A
O248        C253   1.278       .  A
O249        C252   1.288       .  A
O250        C262   1.251       .  A
O251        C264   1.278       .  A
C252        O257   1.272       .  A
C252        C468   1.500       .  S
C253        C577   1.533       .  S
O255        C258   1.252       .  A
O256        C258   1.283       .  A
C258        C552   1.514       .  S
O259        C264   1.276       .  A
O260        C262   1.281       .  A
C261        O263   1.279       .  A
C261        C535   1.497       .  S
C262        C496   1.443       .  S
C264        C804   1.493       .  S
Fe265       O281   2.093       .  S
Fe265       O271   2.105       .  S
Fe265       O278   2.138       .  S
Fe265       O270   2.104       .  S
Fe265       O276   1.911       .  S
Fe266       O269   2.025       .  S
Fe266       O273   2.064       .  S
Fe266       O277   2.037       .  S
Fe266       O282   2.083       .  S
Fe266       O276   1.933       .  S
Fe267       O285   2.158       .  S
Fe267       O272   2.001       .  S
Fe267       O279   2.033       .  S
Fe267       O268   2.123       .  S
Fe267       O276   1.920       .  S
O268        C275   1.282       .  A
O269        C283   1.259       .  A
O270        C275   1.280       .  A
O271        C274   1.280       .  A
O272        C284   1.255       .  A
O273        C286   1.267       .  A
C274        O279   1.267       .  A
C274        C563   1.514       .  S
C275        C409   1.550       .  S
O277        C280   1.268       .  A
O278        C280   1.289       .  A
C280       C1464   1.520   1_545  S
O281        C286   1.269       .  A
O282        C284   1.270       .  A
C283        O285   1.286       .  A
C283        C423   1.517       .  S
C284        C451   1.457       .  S
C286        C734   1.497       .  S
Fe287       O303   2.097       .  S
Fe287       O293   2.124       .  S
Fe287       O300   2.151       .  S
Fe287       O292   2.087       .  S
Fe287       O298   1.922       .  S
Fe288       O291   2.095       .  S
Fe288       O295   2.016       .  S
Fe288       O299   2.019       .  S
Fe288       O304   2.018       .  S
Fe288       O298   1.942       .  S
Fe289       O307   2.005       .  S
Fe289       O294   2.103       .  S
Fe289       O301   2.124       .  S
Fe289       O290   2.027       .  S
Fe289       O298   1.923       .  S
O290        C297   1.262       .  A
O291        C305   1.276       .  A
O292        C297   1.274       .  A
O293        C296   1.284       .  A
O294        C306   1.279       .  A
O295        C308   1.241       .  A
C296        O301   1.283       .  A
C296        C367   1.549       .  S
C297        C510   1.509       .  S
O299        C302   1.273       .  A
O300        C302   1.295       .  A
C302        C675   1.489       .  S
O303        C308   1.267       .  A
O304        C306   1.261       .  A
C305        O307   1.249       .  A
C305        C454   1.476       .  S
C306        C398   1.481       .  S
C308        C384   1.510       .  S
Fe309       O325   2.142       .  S
Fe309       O315   2.077       .  S
Fe309       O322   2.097       .  S
Fe309       O314   2.124       .  S
Fe309       O320   1.925       .  S
Fe310       O313   2.070       .  S
Fe310       O317   2.015       .  S
Fe310       O321   2.074       .  S
Fe310       O326   2.024       .  S
Fe310       O320   1.928       .  S
Fe311       O329   1.999       .  S
Fe311       O316   2.155       .  S
Fe311       O323   2.141       .  S
Fe311       O312   2.046       .  S
Fe311       O320   1.924       .  S
O312        C319   1.265       .  A
O313        C327   1.265       .  A
O314        C319   1.281       .  A
O315        C318   1.276       .  A
O316        C328   1.286       .  A
O317        C330   1.262       .  A
C318        O323   1.287       .  A
C318        C370   1.547       .  S
C319        C482   1.521       .  S
O321        C324   1.268       .  A
O322        C324   1.275       .  A
C324        C636   1.513       .  S
O325        C330   1.286       .  A
O326        C328   1.259       .  A
C327        O329   1.256       .  A
C327        C353   1.442       .  S
C328        C437   1.501       .  S
C330        C426   1.491       .  S
Fe331       O347   2.101       .  S
Fe331       O337   2.108       .  S
Fe331       O344   2.119       .  S
Fe331       O336   2.110       .  S
Fe331       O342   1.914       .  S
Fe332       O335   2.013       .  S
Fe332       O339   2.073       .  S
Fe332       O343   1.997       .  S
Fe332       O348   2.088       .  S
Fe332       O342   1.927       .  S
Fe333       O351   2.144       .  S
Fe333       O338   1.976       .  S
Fe333       O345   2.034       .  S
Fe333       O334   2.112       .  S
Fe333       O342   1.937       .  S
O334        C341   1.277       .  A
O335        C349   1.251       .  A
O336        C341   1.277       .  A
O337        C340   1.283       .  A
O338        C350   1.250       .  A
O339        C352   1.275       .  A
C340        O345   1.269       .  A
C340        C465   1.511       .  S
C341        C412   1.535       .  S
O343        C346   1.254       .  A
O344        C346   1.281       .  A
C346        C395   1.481       .  S
O347        C352   1.279       .  A
O348        C350   1.277       .  A
C349        O351   1.275       .  A
C349        C381   1.489       .  S
C350        C356   1.444       .  S
C352        C650   1.511       .  S
C353        C354   1.414       .  A
C353        C358   1.399       .  A
C354        C355   1.397       .  A
C354        C359   1.452       .  S
C355        C356   1.401       .  A
C355        C362   1.452       .  S
C356        C357   1.417       .  A
C357        C358   1.392       .  A
C357        C360   1.453       .  S
C358        C361   1.453       .  S
C359        N366   1.157       .  T
C360        N365   1.157       .  T
C361        N363   1.157       .  T
C362        N364   1.157       .  T
C367        C368   1.418       .  A
C367        C372   1.426       .  A
C368        C369   1.422       .  A
C368        C373   1.445       .  S
C369        C370   1.428       .  A
C369        C376   1.453       .  S
C370        C371   1.428       .  A
C371        C372   1.436       .  A
C371        C374   1.449       .  S
C372        C375   1.449       .  S
C373        N380   1.156       .  T
C374        N379   1.158       .  T
C375        N377   1.157       .  T
C376        N378   1.158       .  T
C381        C382   1.419       .  A
C381        C386   1.405       .  A
C382        C383   1.409       .  A
C382        C387   1.444       .  S
C383        C384   1.411       .  A
C383        C390   1.454       .  S
C384        C385   1.434       .  A
C385        C386   1.417       .  A
C385        C388   1.451       .  S
C386        C389   1.453       .  S
C387        N394   1.156       .  T
C388        N393   1.157       .  T
C389        N391   1.157       .  T
C390        N392   1.156       .  T
C395        C396   1.425       .  A
C395       C1424   1.403       .  A
C396       C1421   1.417       .  A
C396        C401   1.450       .  S
C397        C398   1.406       .  A
C397       C1420   1.417   1_545  A
C397       C1428   1.449       .  S
C398        C399   1.419       .  A
C399        C400   1.399       .  A
C399        C402   1.453       .  S
C400       C1419   1.403   1_545  A
C400        C403   1.449       .  S
C401        N408   1.157       .  T
C402        N407   1.157       .  T
C403        N405   1.155       .  T
C404       C1421   1.449       .  S
C404        N406   1.157       .  T
C409        C410   1.432       .  A
C409       C1438   1.428   1_545  A
C410       C1435   1.432       .  A
C410        C415   1.449       .  S
C411        C412   1.416       .  A
C411       C1434   1.432       .  A
C411       C1442   1.450       .  S
C412        C413   1.420       .  A
C413        C414   1.428       .  A
C413        C416   1.450       .  S
C414       C1433   1.428       .  A
C414        C417   1.449       .  S
C415        N422   1.158       .  T
C416        N421   1.157       .  T
C417        N419   1.156       .  T
C418       C1435   1.450       .  S
C418        N420   1.157       .  T
C423        C424   1.432       .  A
C423        C428   1.418       .  A
C424        C425   1.418       .  A
C424        C429   1.451       .  S
C425        C426   1.406       .  A
C425        C432   1.452       .  S
C426        C427   1.413       .  A
C427        C428   1.413       .  A
C427        C430   1.453       .  S
C428        C431   1.447       .  S
C429        N436   1.157       .  T
C430        N435   1.158       .  T
C431        N433   1.157       .  T
C432        N434   1.157       .  T
C437        C438   1.423       .  A
C437        C442   1.405       .  A
C438        C439   1.412       .  A
C438        C443   1.452       .  S
C439        C440   1.415       .  A
C439        C446   1.453       .  S
C440       C1304   1.520       .  S
C440       C1465   1.432       .  A
C441       C1464   1.432       .  A
C441       C1466   1.421       .  A
C441        C444   1.449   1_565  S
C442       C1465   1.421       .  A
C442        C445   1.451       .  S
C443        N450   1.158       .  T
C444        N449   1.157       .  T
C445        N447   1.157       .  T
C446        N448   1.158       .  T
C451        C452   1.396       .  A
C451        C456   1.419       .  A
C452        C453   1.393       .  A
C452        C457   1.455       .  S
C453        C454   1.437       .  A
C453        C460   1.457       .  S
C454        C455   1.406       .  A
C455        C456   1.402       .  A
C455        C458   1.452       .  S
C456        C459   1.453       .  S
C457        N464   1.156       .  T
C458        N463   1.157       .  T
C459        N461   1.158       .  T
C460        N462   1.158       .  T
C465        C466   1.426       .  A
C465        C470   1.420       .  A
C466        C467   1.415       .  A
C466        C471   1.453       .  S
C467        C468   1.417       .  A
C467        C474   1.454       .  S
C468        C469   1.418       .  A
C469        C470   1.410       .  A
C469        C472   1.449       .  S
C470        C473   1.455       .  S
C471        N478   1.158       .  T
C472        N477   1.156       .  T
C473        N475   1.158       .  T
C474        N476   1.158       .  T
C479        C480   1.412       .  A
C479        C484   1.409       .  A
C480        C481   1.420       .  A
C480        C485   1.451       .  S
C481        C482   1.424       .  A
C481        C488   1.450       .  S
C482        C483   1.431       .  A
C483        C484   1.414       .  A
C483        C486   1.453       .  S
C484        C487   1.454       .  S
C485        N492   1.157       .  T
C486        N491   1.158       .  T
C487        N489   1.157       .  T
C488        N490   1.157       .  T
C493        C494   1.412       .  A
C493        C498   1.401   1_556  A
C494        C495   1.391       .  A
C494        C499   1.453       .  S
C495        C496   1.398   1_556  A
C495        C502   1.447       .  S
C496        C497   1.418       .  A
C497        C498   1.392       .  A
C497        C500   1.454       .  S
C498        C501   1.453       .  S
C499        N506   1.158       .  T
C500        N505   1.158       .  T
C501        N503   1.157       .  T
C502        N504   1.156       .  T
C507        C508   1.405       .  A
C507        C512   1.404       .  A
C508        C509   1.413       .  A
C508        C513   1.447       .  S
C509        C510   1.424       .  A
C509        C516   1.451       .  S
C510        C511   1.433       .  A
C511        C512   1.406       .  A
C511        C514   1.455       .  S
C512        C515   1.455       .  S
C513        N520   1.156       .  T
C514        N519   1.158       .  T
C515        N517   1.157       .  T
C516        N518   1.158       .  T
C521        C526   1.425       .  A
C521       C1546   1.422   1_545  A
C522        C523   1.432       .  A
C522       C1545   1.422       .  A
C522        C527   1.451       .  S
C523        C524   1.431       .  A
C523        C530   1.451       .  S
C524        C525   1.428       .  A
C525       C1550   1.431       .  A
C525       C1552   1.452       .  S
C526       C1549   1.431       .  A
C526        C529   1.449       .  S
C527        N534   1.157       .  T
C528       C1549   1.452       .  S
C528        N533   1.158       .  T
C529        N531   1.157       .  T
C530        N532   1.158       .  T
C535        C536   1.420       .  A
C535        C540   1.417       .  A
C536        C537   1.404   1_554  A
C536        C541   1.435   1_554  S
C537        C538   1.404       .  A
C537        C544   1.457       .  S
C538       C1244   1.489       .  S
C538        C539   1.417   1_556  A
C539        C540   1.416       .  A
C539       C1566   1.452       .  S
C540        C543   1.445       .  S
C541        N548   1.153       .  T
C542       C1563   1.452   1_545  S
C542        N547   1.158       .  T
C543        N545   1.157       .  T
C544        N546   1.157       .  T
C549        C550   1.402       .  A
C549        C554   1.426       .  A
C550        C551   1.417       .  A
C550        C555   1.450       .  S
C551        C552   1.436   1_556  A
C551        C558   1.450       .  S
C552        C553   1.409       .  A
C553        C554   1.411   1_554  A
C553        C556   1.453       .  S
C554        C557   1.451       .  S
C555        N562   1.157       .  T
C556        N561   1.158       .  T
C557        N559   1.157       .  T
C558        N560   1.158       .  T
C563        C564   1.429       .  A
C563        C568   1.423       .  A
C564        C565   1.413       .  A
C564        C569   1.454       .  S
C565        C566   1.412       .  A
C565        C572   1.453       .  S
C566        C567   1.416       .  A
C567        C568   1.414       .  A
C567        C570   1.454       .  S
C568        C571   1.452       .  S
C569        N576   1.158       .  T
C570        N575   1.157       .  T
C571        N573   1.158       .  T
C572        N574   1.158       .  T
C577        C578   1.423       .  A
C577        C582   1.417       .  A
C578        C579   1.426       .  A
C578        C583   1.448       .  S
C579        C580   1.425       .  A
C579        C586   1.452       .  S
C580        C581   1.431       .  A
C581        C582   1.430       .  A
C581        C584   1.449       .  S
C582        C585   1.451       .  S
C583        N590   1.156       .  T
C584        N589   1.157       .  T
C585        N587   1.157       .  T
C586        N588   1.158       .  T
C591        C592   1.415       .  A
C591        C596   1.418       .  A
C592       C1617   1.415       .  A
C592        C597   1.442       .  S
C593        C594   1.412   1_554  A
C593       C1616   1.415       .  A
C593        C600   1.454   1_554  S
C594       C1619   1.412   1_556  A
C595        C596   1.419       .  A
C595       C1618   1.412   1_544  A
C595       C1622   1.450   1_545  S
C596        C599   1.447       .  S
C597        N604   1.155       .  T
C598       C1619   1.450       .  S
C598        N603   1.157   1_554  T
C599        N601   1.156       .  T
C600        N602   1.158       .  T
C605        C606   1.413   1_554  A
C605        C610   1.414   1_554  A
C606        C607   1.416       .  A
C606        C611   1.453   1_556  S
C607        C608   1.413       .  A
C607        C614   1.440       .  S
C608        C609   1.414       .  A
C609        C610   1.419       .  A
C609        C612   1.447       .  S
C610        C613   1.449       .  S
C611        N618   1.158       .  T
C612        N617   1.157       .  T
C613        N615   1.157       .  T
C614        N616   1.155       .  T
C619        C620   1.432       .  A
C619        C624   1.412   1_556  A
C620        C621   1.388       .  A
C620        C625   1.457       .  S
C621        C622   1.394   1_556  A
C621        C628   1.456       .  S
C622        C623   1.413       .  A
C623        C624   1.393       .  A
C623        C626   1.454       .  S
C624        C627   1.453       .  S
C625        N632   1.158       .  T
C626        N631   1.158       .  T
C627        N629   1.158       .  T
C628        N630   1.157       .  T
C633        C634   1.414       .  A
C633        C638   1.404       .  A
C634        C635   1.419   1_655  A
C634        C639   1.450       .  S
C635        C636   1.419       .  A
C635        C642   1.450       .  S
C636        C637   1.427       .  A
C637        C638   1.412   1_455  A
C637        C640   1.446       .  S
C638        C641   1.454       .  S
C639        N646   1.157       .  T
C640        N645   1.156       .  T
C641        N643   1.157       .  T
C642        N644   1.157       .  T
C647        C648   1.429       .  A
C647        C652   1.425       .  A
C648        C649   1.415       .  A
C648        C653   1.449       .  S
C649        C650   1.411       .  A
C649        C656   1.454       .  S
C650        C651   1.418       .  A
C651        C652   1.425       .  A
C651        C654   1.450       .  S
C652        C655   1.451       .  S
C653        N660   1.156       .  T
C654        N659   1.157       .  T
C655        N657   1.158       .  T
C656        N658   1.157       .  T
C661        C662   1.399       .  A
C661        C666   1.415       .  A
C662        C663   1.395       .  A
C662        C667   1.454       .  S
C663        C664   1.428       .  A
C663        C670   1.454       .  S
C664        C665   1.409       .  A
C665        C666   1.402       .  A
C665        C668   1.447       .  S
C666        C669   1.454       .  S
C667        N674   1.157       .  T
C668        N673   1.156       .  T
C669        N671   1.157       .  T
C670        N672   1.157       .  T
C675        C676   1.410       .  A
C675        C680   1.413       .  A
C676        C677   1.407       .  A
C676        C681   1.453       .  S
C677        C678   1.423       .  A
C677        C684   1.454       .  S
C678        C679   1.419       .  A
C679        C680   1.419       .  A
C679        C682   1.450       .  S
C680        C683   1.446       .  S
C681        N688   1.157       .  T
C682        N687   1.157       .  T
C683        N685   1.156       .  T
C684        N686   1.158       .  T
C689        C694   1.419       .  A
C689       C1714   1.415   1_545  A
C690        C691   1.419       .  A
C690       C1713   1.415       .  A
C690        C695   1.452       .  S
C691        C692   1.416       .  A
C691        C698   1.446       .  S
C692        C693   1.418       .  A
C693       C1718   1.432       .  A
C693        C696   1.447       .  S
C694       C1717   1.432   1_545  A
C694        C697   1.447       .  S
C695        N702   1.157       .  T
C696       N1725   1.157       .  T
C697        N699   1.157       .  T
C698        N700   1.156       .  T
N701       C1720   1.157       .  T
C703       C1156   1.512       .  S
C703        C704   1.434       .  A
C703        C708   1.415       .  A
C704        C705   1.419       .  A
C704       C1733   1.451       .  S
C705        C706   1.403       .  A
C705        C712   1.451       .  S
C706        C707   1.424       .  A
C707        C708   1.409       .  A
C707        C710   1.451       .  S
C708        C711   1.455       .  S
C709       C1728   1.451   1_545  S
C709        N716   1.158       .  T
C710        N715   1.158       .  T
C711        N713   1.158       .  T
C712        N714   1.157       .  T
C717        C718   1.412       .  A
C717        C722   1.414       .  A
C718        C719   1.415       .  A
C718        C723   1.450       .  S
C719        C720   1.413       .  A
C719        C726   1.449       .  S
C720        C721   1.412       .  A
C721        C722   1.411       .  A
C721        C724   1.452       .  S
C722        C725   1.451       .  S
C723        N730   1.157       .  T
C724        N729   1.157       .  T
C725        N727   1.157       .  T
C726        N728   1.157       .  T
C731        C732   1.427       .  A
C731        C736   1.420   1_655  A
C732        C733   1.410   1_655  A
C732        C737   1.443       .  S
C733        C734   1.404       .  A
C733        C740   1.456       .  S
C734        C735   1.418       .  A
C735        C736   1.425       .  A
C735        C738   1.449       .  S
C736        C739   1.449   1_455  S
C737        N744   1.155       .  T
C738        N743   1.157       .  T
C739        N741   1.157       .  T
C740        N742   1.157       .  T
C745        C746   1.426       .  A
C745        C750   1.410       .  A
C746        C747   1.435       .  A
C746        C751   1.448       .  S
C747        C748   1.423       .  A
C747        C754   1.448       .  S
C748        C749   1.418       .  A
C749        C750   1.414       .  A
C749        C752   1.443       .  S
C750        C753   1.446       .  S
C751        N758   1.157       .  T
C752        N757   1.155       .  T
C753        N755   1.156       .  T
C754        N756   1.157       .  T
C759        C760   1.424       .  A
C759        C764   1.401       .  A
C760        C761   1.408       .  A
C760        C765   1.450       .  S
C761       C1786   1.410   1_545  A
C761        C768   1.454       .  S
C762        C763   1.433       .  A
C762       C1785   1.410       .  A
C763       C1788   1.414       .  A
C763        C766   1.451       .  S
C764       C1787   1.414   1_545  A
C764       C1791   1.452       .  S
C765        N772   1.158       .  T
C766        N771   1.158       .  T
C767       C1788   1.452       .  S
C767        N769   1.157       .  T
C768        N770   1.158       .  T
C773        C774   1.398       .  A
C773        C778   1.424       .  A
C774        C775   1.398       .  A
C774        C779   1.453       .  S
C775        C776   1.422       .  A
C775        C782   1.450       .  S
C776        C777   1.410       .  A
C777        C778   1.422       .  A
C777        C780   1.447       .  S
C778        C781   1.449       .  S
C779        N786   1.158       .  T
C780        N785   1.157       .  T
C781        N783   1.157       .  T
C782        N784   1.156       .  T
C787        C788   1.424       .  A
C787        C792   1.409       .  A
C788        C789   1.401       .  A
C788        C793   1.455       .  S
C789        C790   1.407       .  A
C789        C796   1.452       .  S
C790        C791   1.413       .  A
C791        C792   1.395       .  A
C791        C794   1.453       .  S
C792        C795   1.452       .  S
C793        N800   1.158       .  T
C794        N799   1.157       .  T
C795        N797   1.157       .  T
C796        N798   1.157       .  T
C801        C802   1.403       .  A
C801        C806   1.421       .  A
C802        C803   1.409       .  A
C802        C807   1.448       .  S
C803        C804   1.409       .  A
C803        C810   1.435       .  S
C804        C805   1.404       .  A
C805        C806   1.418       .  A
C805        C808   1.448       .  S
C806        C809   1.446       .  S
C807        N814   1.157       .  T
C808        N813   1.157       .  T
C809        N811   1.157       .  T
C810        N812   1.152       .  T
C815        C816   1.424       .  A
C815        C820   1.433       .  A
C816        C817   1.421       .  A
C816        C821   1.450       .  S
C817        C818   1.415       .  A
C817        C824   1.452       .  S
C818        C819   1.408       .  A
C819        C820   1.413       .  A
C819        C822   1.451       .  S
C820        C823   1.454       .  S
C821        N828   1.158       .  T
C822        N827   1.156       .  T
C823        N825   1.158       .  T
C824        N826   1.157       .  T
C829        C830   1.417       .  A
C829        C834   1.401   1_655  A
C830        C831   1.421   1_655  A
C830        C835   1.449       .  S
C831        C832   1.417       .  A
C831        C838   1.450       .  S
C832        C833   1.426       .  A
C833        C834   1.409       .  A
C833        C836   1.451       .  S
C834        C837   1.446       .  S
C835        N842   1.157       .  T
C836        N841   1.158       .  T
C837        N839   1.156       .  T
C838        N840   1.157       .  T
C843        C844   1.414       .  A
C843        C848   1.412       .  A
C844        C845   1.405       .  A
C844        C849   1.453       .  S
C845        C846   1.415       .  A
C845        C852   1.455       .  S
C846        C847   1.416       .  A
C847        C848   1.419       .  A
C847        C850   1.448       .  S
C848        C851   1.449       .  S
C849        N856   1.157       .  T
C850        N855   1.157       .  T
C851        N853   1.157       .  T
C852        N854   1.158       .  T
C857        C858   1.419       .  A
C857        C862   1.399   1_556  A
C858        C859   1.398       .  A
C858        C863   1.454       .  S
C859        C860   1.401   1_556  A
C859        C866   1.453       .  S
C860        C861   1.421       .  A
C861        C862   1.395       .  A
C861        C864   1.454       .  S
C862        C865   1.453       .  S
C863        N870   1.157       .  T
C864        N869   1.157       .  T
C865        N867   1.157       .  T
C866        N868   1.157       .  T
C871        C872   1.414       .  A
C871        C876   1.433       .  A
C872        C873   1.412       .  A
C872        C877   1.451       .  S
C873        C874   1.417       .  A
C873        C880   1.450       .  S
C874        C875   1.400       .  A
C875        C876   1.408       .  A
C875        C878   1.454       .  S
C876        C879   1.452       .  S
C877        N884   1.157       .  T
C878        N883   1.157       .  T
C879        N881   1.157       .  T
C880        N882   1.157       .  T
C885        C886   1.427       .  A
C885        C890   1.419       .  A
C886        C887   1.409       .  A
C886        C891   1.454       .  S
C887        C888   1.407       .  A
C887        C894   1.454       .  S
C888        C889   1.412       .  A
C889        C890   1.418       .  A
C889        C892   1.450       .  S
C890        C893   1.449       .  S
C891        N898   1.157       .  T
C892        N897   1.157       .  T
C893        N895   1.157       .  T
C894        N896   1.157       .  T
C899        C900   1.411       .  A
C899        C904   1.418       .  A
C900        C901   1.410       .  A
C900        C905   1.441       .  S
C901        C902   1.419       .  A
C901        C908   1.450       .  S
C902        C903   1.428       .  A
C903        C904   1.438       .  A
C903        C906   1.445       .  S
C904        C907   1.448       .  S
C905        N912   1.154       .  T
C906        N911   1.157       .  T
C907        N909   1.157       .  T
C908        N910   1.157       .  T
C913        C918   1.419   1_554  A
C913       C1938   1.411       .  A
C914        C915   1.411   1_554  A
C914       C1937   1.411   1_545  A
C914       C1943   1.448       .  S
C915        C916   1.411       .  A
C915        C922   1.449       .  S
C916        C917   1.409       .  A
C917       C1942   1.421   1_545  A
C917        C920   1.448       .  S
C918       C1941   1.421       .  A
C918        C921   1.449       .  S
C919       C1938   1.448       .  S
C919        N926   1.156       .  T
C920        N925   1.157       .  T
C921        N923   1.157       .  T
C922        N924   1.156       .  T
C927        C928   1.419   1_556  A
C927        C932   1.405       .  A
C928        C929   1.410       .  A
C928        C933   1.450       .  S
C929        C930   1.412       .  A
C929        C936   1.451       .  S
C930        C931   1.434       .  A
C931        C932   1.415   1_554  A
C931        C934   1.453       .  S
C932        C935   1.453       .  S
C933        N940   1.156       .  T
C934        N939   1.158       .  T
C935        N937   1.157       .  T
C936        N938   1.157       .  T
C941        C942   1.416       .  A
C941        C946   1.414   1_655  A
C942        C943   1.419   1_655  A
C942        C947   1.451       .  S
C943        C944   1.424       .  A
C943        C950   1.451       .  S
C944        C945   1.428       .  A
C945        C946   1.412       .  A
C945        C948   1.454       .  S
C946        C949   1.456   1_455  S
C947        N954   1.157       .  T
C948        N953   1.158   1_554  T
C949        N951   1.158       .  T
C950        N952   1.158       .  T
C955        C956   1.420       .  A
C955        C960   1.428       .  A
C956        C957   1.418       .  A
C956        C961   1.450       .  S
C957        C958   1.412       .  A
C957        C964   1.451       .  S
C958        C959   1.407       .  A
C959        C960   1.407       .  A
C959        C962   1.454       .  S
C960        C963   1.455       .  S
C961        N968   1.157       .  T
C962        N967   1.157       .  T
C963        N965   1.158       .  T
C964        N966   1.157       .  T
C969        C974   1.423       .  A
C969       C1994   1.414   1_545  A
C970        C971   1.416       .  A
C970       C1993   1.414       .  A
C970        C975   1.450       .  S
C971        C972   1.418       .  A
C971        C978   1.445       .  S
C972        C973   1.419       .  A
C973       C1998   1.433       .  A
C973        C976   1.448       .  S
C974       C1997   1.433   1_545  A
C974        C977   1.448       .  S
C975        N982   1.156       .  T
C976       N2005   1.157       .  T
C977        N979   1.157       .  T
C978        N980   1.155       .  T
N981       C2000   1.157   1_545  T
C983        C984   1.425   1_556  A
C983        C988   1.405       .  A
C984        C985   1.413       .  A
C984        C989   1.451       .  S
C985        C986   1.412       .  A
C985        C992   1.453       .  S
C986       C1040   1.511       .  S
C986       C2011   1.430   1_554  A
C987       C2010   1.430   1_556  A
C987       C2012   1.420       .  A
C987        C990   1.451   1_565  S
C988       C2011   1.420       .  A
C988        C991   1.450       .  S
C989        N996   1.158       .  T
C990        N995   1.157       .  T
C991        N993   1.157       .  T
C992        N994   1.158       .  T
C997        C998   1.420       .  A
C997       C1002   1.417       .  A
C998        C999   1.418       .  A
C998       C1003   1.449       .  S
C999       C1000   1.417   1_554  A
C999       C1006   1.453   1_554  S
C1000      C1001   1.412   1_556  A
C1001      C1002   1.415       .  A
C1001      C1004   1.444       .  S
C1002      C1005   1.453       .  S
C1003      N1010   1.157       .  T
C1004      N1009   1.155       .  T
C1005      N1007   1.157       .  T
C1006      N1008   1.157       .  T
C1011      C1012   1.408   1_554  A
C1011      C1016   1.424       .  A
C1012      C1013   1.387       .  A
C1012      C1017   1.455       .  S
C1013      C1014   1.420       .  A
C1013      C1020   1.458       .  S
C1014      C1015   1.406   1_556  A
C1015      C1016   1.391       .  A
C1015      C1018   1.456       .  S
C1016      C1019   1.457       .  S
C1017      N1024   1.157       .  T
C1018      N1023   1.158       .  T
C1019      N1021   1.158       .  T
C1020      N1022   1.158       .  T
Fe1025     O1041   2.092       .  S
Fe1025     O1031   2.139       .  S
Fe1025     O1038   2.143       .  S
Fe1025     O1030   2.094       .  S
Fe1025     O1036   1.907       .  S
Fe1026     O1029   2.030       .  S
Fe1026     O1033   2.055       .  S
Fe1026     O1037   2.024       .  S
Fe1026     O1042   2.062       .  S
Fe1026     O1036   1.920       .  S
Fe1027     O1045   2.138       .  S
Fe1027     O1032   1.990       .  S
Fe1027     O1039   2.025       .  S
Fe1027     O1028   2.109       .  S
Fe1027     O1036   1.904       .  S
O1028      C1035   1.276       .  A
O1029      C1043   1.262       .  A
O1030      C1035   1.278       .  A
O1031      C1034   1.286       .  A
O1032      C1044   1.250       .  A
O1033      C1046   1.270       .  A
C1034      O1039   1.266       .  A
C1034      C1979   1.506       .  S
C1035      C1993   1.524       .  S
O1037      C1040   1.262       .  A
O1038      C1040   1.288       .  A
O1041      C1046   1.277       .  A
O1042      C1044   1.269       .  A
C1043      O1045   1.281       .  A
C1043      C2021   1.505       .  S
C1044      C2035   1.453       .  S
C1046      C1965   1.500       .  S
Fe1047     O1063   2.108       .  S
Fe1047     O1053   2.128       .  S
Fe1047     O1060   2.114       .  S
Fe1047     O1052   2.104       .  S
Fe1047     O1058   1.964       .  S
Fe1048     O1051   2.023       .  S
Fe1048     O1055   2.002       .  S
Fe1048     O1059   2.023       .  S
Fe1048     O1064   2.034       .  S
Fe1048     O1058   1.955       .  S
Fe1049     O1067   1.992       .  S
Fe1049     O1054   2.110       .  S
Fe1049     O1061   2.106       .  S
Fe1049     O1050   2.020       .  S
Fe1049     O1058   1.958       .  S
O1050      C1057   1.256       .  A
O1051      C1065   1.260       .  A
O1052      C1057   1.271       .  A
O1053      C1056   1.286       .  A
O1054      C1066   1.279       .  A
O1055      C1068   1.249       .  A
C1056      O1061   1.283       .  A
C1056      C1923   1.526       .  S
C1057      C1909   1.508       .  S
O1059      C1062   1.266       .  A
O1060      C1062   1.287       .  A
C1062      C1895   1.504       .  S
O1063      C1068   1.271       .  A
O1064      C1066   1.261       .  A
C1065      O1067   1.251       .  A
C1065      C2038   1.450       .  S
C1066      C1940   1.486       .  S
C1068      C1951   1.488       .  S
Fe1069     O1085   2.168       .  S
Fe1069     O1075   2.074       .  S
Fe1069     O1082   2.079       .  S
Fe1069     O1074   2.132       .  S
Fe1069     O1080   1.910       .  S
Fe1070     O1073   2.105       .  S
Fe1070     O1077   2.011       .  S
Fe1070     O1081   2.085       .  S
Fe1070     O1086   2.009       .  S
Fe1070     O1080   1.923       .  S
Fe1071     O1089   1.983       .  S
Fe1071     O1076   2.173       .  S
Fe1071     O1083   2.143       .  S
Fe1071     O1072   2.028       .  S
Fe1071     O1080   1.922       .  S
O1072      C1079   1.265       .  A
O1073      C1087   1.274       .  A
O1074      C1079   1.284       .  A
O1075      C1078   1.276       .  A
O1076      C1088   1.286       .  A
O1077      C1090   1.259       .  A
C1078      O1083   1.285       .  A
C1078      C1926   1.535       .  S
C1079      C1867   1.486       .  S
O1081      C1084   1.273       .  A
O1082      C1084   1.270       .  A
C1084      C1853   1.494       .  S
O1085      C1090   1.293       .  A
O1086      C1088   1.250       .  A
C1087      O1089   1.251       .  A
C1087      C1881   1.449       .  S
C1088      C2007   1.498       .  S
C1090      C2024   1.498       .  S
Fe1091     O1107   2.096       .  S
Fe1091     O1097   2.139       .  S
Fe1091     O1104   2.159       .  S
Fe1091     O1096   2.104       .  S
Fe1091     O1102   1.919       .  S
Fe1092     O1095   2.004       .  S
Fe1092     O1099   2.064       .  S
Fe1092     O1103   2.009       .  S
Fe1092     O1108   2.096       .  S
Fe1092     O1102   1.945       .  S
Fe1093     O1111   2.136       .  S
Fe1093     O1098   1.978       .  S
Fe1093     O1105   2.029       .  S
Fe1093     O1094   2.117       .  S
Fe1093     O1102   1.914       .  S
O1094      C1101   1.278       .  A
O1095      C1109   1.250       .  A
O1096      C1101   1.278       .  A
O1097      C1100   1.287       .  A
O1098      C1110   1.253       .  A
O1099      C1112   1.268       .  A
C1100      O1105   1.266       .  A
C1100      C1839   1.523       .  S
C1101      C1996   1.522       .  S
O1103      C1106   1.261       .  A
O1104      C1106   1.292       .  A
C1106      C1937   1.492       .  S
O1107      C1112   1.272       .  A
O1108      C1110   1.273       .  A
C1109      O1111   1.278       .  A
C1109      C1954   1.507       .  S
C1110      C1884   1.450       .  S
C1112      C1825   1.491       .  S
Fe1113     O1129   2.110       .  S
Fe1113     O1119   2.105       .  S
Fe1113     O1126   2.129       .  S
Fe1113     O1118   2.117       .  S
Fe1113     O1124   1.900       .  S
Fe1114     O1117   2.012       .  S
Fe1114     O1121   2.074       .  S
Fe1114     O1125   2.012       .  S
Fe1114     O1130   2.097       .  S
Fe1114     O1124   1.923       .  S
Fe1115     O1133   2.146       .  S
Fe1115     O1120   2.012       .  S
Fe1115     O1127   2.050       .  S
Fe1115     O1116   2.107       .  S
Fe1115     O1124   1.931       .  S
O1116      C1123   1.277       .  A
O1117      C1131   1.250       .  A
O1118      C1123   1.285       .  A
O1119      C1122   1.281       .  A
O1120      C1132   1.254       .  A
O1121      C1134   1.269       .  A
C1122      O1127   1.271       .  A
C1122      C1982   1.484       .  S
C1123      C1769   1.533       .  S
O1125      C1128   1.262       .  A
O1126      C1128   1.285       .  A
C1128      C1797   1.485       .  S
O1129      C1134   1.278       .  A
O1130      C1132   1.271       .  A
C1131      O1133   1.280       .  A
C1131      C1783   1.487       .  S
C1132      C1811   1.469       .  S
C1134      C1755   1.519       .  S
Fe1135     O1151   2.083       .  S
Fe1135     O1141   2.111       .  S
Fe1135     O1148   2.142       .  S
Fe1135     O1140   2.081       .  S
Fe1135     O1146   1.925       .  S
Fe1136     O1139   2.043       .  S
Fe1136     O1143   2.037       .  S
Fe1136     O1147   2.024       .  S
Fe1136     O1152   2.027       .  S
Fe1136     O1146   1.939       .  S
Fe1137     O1155   2.049       .  S
Fe1137     O1142   2.105       .  S
Fe1137     O1149   2.102       .  S
Fe1137     O1138   2.056       .  S
Fe1137     O1146   1.935       .  S
O1138      C1145   1.266       .  A
O1139      C1153   1.274       .  A
O1140      C1145   1.272       .  A
O1141      C1144   1.282       .  A
O1142      C1154   1.272       .  A
O1143      C1156   1.248       .  A
C1144      O1149   1.278       .  A
C1144      C1713   1.516       .  S
C1145      C1912   1.486       .  S
O1147      C1150   1.274       .  A
O1148      C1150   1.295       .  A
C1150      C1702   1.503       .  S
O1151      C1156   1.264       .  A
O1152      C1154   1.253       .  A
C1153      O1155   1.275       .  A
C1153      C1814   1.466       .  S
C1154      C1744   1.477       .  S
Fe1157     O1173   2.108       .  S
Fe1157     O1163   2.117       .  S
Fe1157     O1170   2.149       .  S
Fe1157     O1162   2.100       .  S
Fe1157     O1168   1.919       .  S
Fe1158     O1161   2.018       .  S
Fe1158     O1165   2.067       .  S
Fe1158     O1169   2.009       .  S
Fe1158     O1174   2.079       .  S
Fe1158     O1168   1.931       .  S
Fe1159     O1177   2.160       .  S
Fe1159     O1164   1.996       .  S
Fe1159     O1171   2.048       .  S
Fe1159     O1160   2.137       .  S
Fe1159     O1168   1.921       .  S
O1160      C1167   1.287       .  A
O1161      C1175   1.256       .  A
O1162      C1167   1.281       .  A
O1163      C1166   1.282       .  A
O1164      C1176   1.252       .  A
O1165      C1178   1.265       .  A
C1166      O1171   1.267       .  A
C1166      C1842   1.500       .  S
C1167      C1772   1.529       .  S
O1169      C1172   1.261       .  A
O1170      C1172   1.289       .  A
C1172      C1741   1.483       .  S
O1173      C1178   1.274       .  A
O1174      C1176   1.264       .  A
C1175      O1177   1.287       .  A
C1175      C1730   1.495       .  S
C1176      C1685   1.458       .  S
C1178      C1671   1.528       .  S
Fe1179     O1195   2.095       .  S
Fe1179     O1185   2.111       .  S
Fe1179     O1192   2.138       .  S
Fe1179     O1184   2.089       .  S
Fe1179     O1190   1.938       .  S
Fe1180     O1183   2.089       .  S
Fe1180     O1187   2.015       .  S
Fe1180     O1191   2.029       .  S
Fe1180     O1196   1.996       .  S
Fe1180     O1190   1.941       .  S
Fe1181     O1199   2.022       .  S
Fe1181     O1186   2.122       .  S
Fe1181     O1193   2.117       .  S
Fe1181     O1182   2.049       .  S
Fe1181     O1190   1.935       .  S
O1182      C1189   1.267       .  A
O1183      C1197   1.279       .  A
O1184      C1189   1.272       .  A
O1185      C1188   1.280       .  A
O1186      C1198   1.280       .  A
O1187      C1200   1.243       .  A
C1188      O1193   1.282       .  A
C1188      C1716   1.521       .  S
C1189      C1870   1.491       .  S
O1191      C1194   1.273       .  A
O1192      C1194   1.293       .  A
C1194      C1657   1.486       .  S
O1195      C1200   1.265       .  A
O1196      C1198   1.255       .  A
C1197      O1199   1.260       .  A
C1197      C1688   1.481       .  S
C1198      C1800   1.491       .  S
C1200      C1786   1.502       .  S
Fe1201     O1217   2.086       .  S
Fe1201     O1207   2.118       .  S
Fe1201     O1214   2.139       .  S
Fe1201     O1206   2.095       .  S
Fe1201     O1212   1.914       .  S
Fe1202     O1205   2.044       .  S
Fe1202     O1209   2.069       .  S
Fe1202     O1213   2.035       .  S
Fe1202     O1218   2.073       .  S
Fe1202     O1212   1.925       .  S
Fe1203     O1221   2.151       .  S
Fe1203     O1208   1.975       .  S
Fe1203     O1215   2.023       .  S
Fe1203     O1204   2.119       .  S
Fe1203     O1212   1.917       .  S
O1204      C1211   1.280       .  A
O1205      C1219   1.265       .  A
O1206      C1211   1.278       .  A
O1207      C1210   1.283       .  A
O1208      C1220   1.251       .  A
O1209      C1222   1.267       .  A
C1210      O1215   1.266       .  A
C1210      C1590   1.496       .  S
C1211      C1604   1.543       .  S
O1213      C1216   1.264       .  A
O1214      C1216   1.284       .  A
C1216      C1629   1.494       .  S
O1217      C1222   1.274       .  A
O1218      C1220   1.272       .  A
C1219      O1221   1.284       .  A
C1219      C1615   1.511       .  S
C1220      C1646   1.433       .  S
C1222      C1968   1.516       .  S
Fe1223     O1239   2.076       .  S
Fe1223     O1229   2.110       .  S
Fe1223     O1236   2.129       .  S
Fe1223     O1228   2.079       .  S
Fe1223     O1234   1.929       .  S
Fe1224     O1227   2.028       .  S
Fe1224     O1231   2.018       .  S
Fe1224     O1235   2.014       .  S
Fe1224     O1240   2.005       .  S
Fe1224     O1234   1.950       .  S
Fe1225     O1243   2.014       .  S
Fe1225     O1230   2.139       .  S
Fe1225     O1237   2.125       .  S
Fe1225     O1226   2.041       .  S
Fe1225     O1234   1.920       .  S
O1226      C1233   1.262       .  A
O1227      C1241   1.275       .  A
O1228      C1233   1.268       .  A
O1229      C1232   1.284       .  A
O1230      C1242   1.278       .  A
O1231      C1244   1.246       .  A
C1232      O1237   1.286       .  A
C1232      C1545   1.544       .  S
C1233      C1531   1.474       .  S
O1235      C1238   1.269       .  A
O1236      C1238   1.292       .  A
C1238      C1898   1.475       .  S
O1239      C1244   1.264       .  A
O1240      C1242   1.243       .  A
C1241      O1243   1.265       .  A
C1241      C1643   1.466       .  S
C1242      C1573   1.494       .  S
Fe1245     O1261   2.134       .  S
Fe1245     O1251   2.106       .  S
Fe1245     O1258   2.108       .  S
Fe1245     O1250   2.121       .  S
Fe1245     O1256   1.921       .  S
Fe1246     O1249   2.058       .  S
Fe1246     O1253   2.033       .  S
Fe1246     O1257   2.066       .  S
Fe1246     O1262   2.047       .  S
Fe1246     O1256   1.931       .  S
Fe1247     O1265   2.001       .  S
Fe1247     O1252   2.150       .  S
Fe1247     O1259   2.115       .  S
Fe1247     O1248   2.049       .  S
Fe1247     O1256   1.930       .  S
O1248      C1255   1.269       .  A
O1249      C1263   1.268       .  A
O1250      C1255   1.283       .  A
O1251      C1254   1.279       .  A
O1252      C1264   1.283       .  A
O1253      C1266   1.265       .  A
C1254      O1259   1.280       .  A
C1254      C1548   1.550       .  S
C1255      C1503   1.494       .  S
O1257      C1260   1.266       .  A
O1258      C1260   1.279       .  A
C1260      C1856   1.509       .  S
O1261      C1266   1.283       .  A
O1262      C1264   1.266       .  A
C1263      O1265   1.254       .  A
C1263      C1517   1.439       .  S
C1264      C1632   1.510       .  S
C1266      C1618   1.493       .  S
Fe1267     O1283   2.086       .  S
Fe1267     O1273   2.126       .  S
Fe1267     O1280   2.133       .  S
Fe1267     O1272   2.113       .  S
Fe1267     O1278   1.922       .  S
Fe1268     O1271   2.022       .  S
Fe1268     O1275   2.085       .  S
Fe1268     O1279   2.006       .  S
Fe1268     O1284   2.092       .  S
Fe1268     O1278   1.929       .  S
Fe1269     O1287   2.154       .  S
Fe1269     O1274   1.979       .  S
Fe1269     O1281   2.034       .  S
Fe1269     O1270   2.106       .  S
Fe1269     O1278   1.941       .  S
O1270      C1277   1.275       .  A
O1271      C1285   1.253       .  A
O1272      C1277   1.278       .  A
O1273      C1276   1.288       .  A
O1274      C1286   1.251       .  A
O1275      C1288   1.278       .  A
C1276      O1281   1.272       .  A
C1276      C1492   1.500       .  S
C1277      C1601   1.533       .  S
O1279      C1282   1.252       .  A
O1280      C1282   1.283       .  A
C1282      C1576   1.514       .  S
O1283      C1288   1.276       .  A
O1284      C1286   1.281       .  A
C1285      O1287   1.279       .  A
C1285      C1559   1.497       .  S
C1286      C1520   1.443       .  S
C1288      C1828   1.493       .  S
Fe1289     O1305   2.093       .  S
Fe1289     O1295   2.105       .  S
Fe1289     O1302   2.138       .  S
Fe1289     O1294   2.104       .  S
Fe1289     O1300   1.911       .  S
Fe1290     O1293   2.025       .  S
Fe1290     O1297   2.064       .  S
Fe1290     O1301   2.037       .  S
Fe1290     O1306   2.083       .  S
Fe1290     O1300   1.933       .  S
Fe1291     O1309   2.158       .  S
Fe1291     O1296   2.001       .  S
Fe1291     O1303   2.033       .  S
Fe1291     O1292   2.123       .  S
Fe1291     O1300   1.920       .  S
O1292      C1299   1.282       .  A
O1293      C1307   1.259       .  A
O1294      C1299   1.280       .  A
O1295      C1298   1.280       .  A
O1296      C1308   1.255       .  A
O1297      C1310   1.267       .  A
C1298      O1303   1.267       .  A
C1298      C1587   1.514       .  S
C1299      C1433   1.550       .  S
O1301      C1304   1.268       .  A
O1302      C1304   1.289       .  A
O1305      C1310   1.269       .  A
O1306      C1308   1.270       .  A
C1307      O1309   1.286       .  A
C1307      C1447   1.517       .  S
C1308      C1475   1.457       .  S
C1310      C1758   1.497       .  S
Fe1311     O1327   2.097       .  S
Fe1311     O1317   2.124       .  S
Fe1311     O1324   2.151       .  S
Fe1311     O1316   2.087       .  S
Fe1311     O1322   1.922       .  S
Fe1312     O1315   2.095       .  S
Fe1312     O1319   2.016       .  S
Fe1312     O1323   2.019       .  S
Fe1312     O1328   2.018       .  S
Fe1312     O1322   1.942       .  S
Fe1313     O1331   2.005       .  S
Fe1313     O1318   2.103       .  S
Fe1313     O1325   2.124       .  S
Fe1313     O1314   2.027       .  S
Fe1313     O1322   1.923       .  S
O1314      C1321   1.262       .  A
O1315      C1329   1.276       .  A
O1316      C1321   1.274       .  A
O1317      C1320   1.284       .  A
O1318      C1330   1.279       .  A
O1319      C1332   1.241       .  A
C1320      O1325   1.283       .  A
C1320      C1391   1.549       .  S
C1321      C1534   1.509       .  S
O1323      C1326   1.273       .  A
O1324      C1326   1.295       .  A
C1326      C1699   1.489       .  S
O1327      C1332   1.267       .  A
O1328      C1330   1.261       .  A
C1329      O1331   1.249       .  A
C1329      C1478   1.476       .  S
C1330      C1422   1.481       .  S
C1332      C1408   1.510       .  S
Fe1333     O1349   2.142       .  S
Fe1333     O1339   2.077       .  S
Fe1333     O1346   2.097       .  S
Fe1333     O1338   2.124       .  S
Fe1333     O1344   1.925       .  S
Fe1334     O1337   2.070       .  S
Fe1334     O1341   2.015       .  S
Fe1334     O1345   2.074       .  S
Fe1334     O1350   2.024       .  S
Fe1334     O1344   1.928       .  S
Fe1335     O1353   1.999       .  S
Fe1335     O1340   2.155       .  S
Fe1335     O1347   2.141       .  S
Fe1335     O1336   2.046       .  S
Fe1335     O1344   1.924       .  S
O1336      C1343   1.265       .  A
O1337      C1351   1.265       .  A
O1338      C1343   1.281       .  A
O1339      C1342   1.276       .  A
O1340      C1352   1.286       .  A
O1341      C1354   1.262       .  A
C1342      O1347   1.287       .  A
C1342      C1394   1.547       .  S
C1343      C1506   1.521       .  S
O1345      C1348   1.268       .  A
O1346      C1348   1.275       .  A
C1348      C1660   1.513       .  S
O1349      C1354   1.286       .  A
O1350      C1352   1.259       .  A
C1351      O1353   1.256       .  A
C1351      C1377   1.442       .  S
C1352      C1461   1.501       .  S
C1354      C1450   1.491       .  S
Fe1355     O1371   2.101       .  S
Fe1355     O1361   2.108       .  S
Fe1355     O1368   2.119       .  S
Fe1355     O1360   2.110       .  S
Fe1355     O1366   1.914       .  S
Fe1356     O1359   2.013       .  S
Fe1356     O1363   2.073       .  S
Fe1356     O1367   1.997       .  S
Fe1356     O1372   2.088       .  S
Fe1356     O1366   1.927       .  S
Fe1357     O1375   2.144       .  S
Fe1357     O1362   1.976       .  S
Fe1357     O1369   2.034       .  S
Fe1357     O1358   2.112       .  S
Fe1357     O1366   1.937       .  S
O1358      C1365   1.277       .  A
O1359      C1373   1.251       .  A
O1360      C1365   1.277       .  A
O1361      C1364   1.283       .  A
O1362      C1374   1.250       .  A
O1363      C1376   1.275       .  A
C1364      O1369   1.269       .  A
C1364      C1489   1.511       .  S
C1365      C1436   1.535       .  S
O1367      C1370   1.254       .  A
O1368      C1370   1.281       .  A
C1370      C1419   1.481       .  S
O1371      C1376   1.279       .  A
O1372      C1374   1.277       .  A
C1373      O1375   1.275       .  A
C1373      C1405   1.489       .  S
C1374      C1380   1.444       .  S
C1376      C1674   1.511       .  S
C1377      C1378   1.414       .  A
C1377      C1382   1.399       .  A
C1378      C1379   1.397       .  A
C1378      C1383   1.452       .  S
C1379      C1380   1.401       .  A
C1379      C1386   1.452       .  S
C1380      C1381   1.417       .  A
C1381      C1382   1.392       .  A
C1381      C1384   1.453       .  S
C1382      C1385   1.453       .  S
C1383      N1390   1.157       .  T
C1384      N1389   1.157       .  T
C1385      N1387   1.157       .  T
C1386      N1388   1.157       .  T
C1391      C1392   1.418       .  A
C1391      C1396   1.426       .  A
C1392      C1393   1.422       .  A
C1392      C1397   1.445       .  S
C1393      C1394   1.428       .  A
C1393      C1400   1.453       .  S
C1394      C1395   1.428       .  A
C1395      C1396   1.436       .  A
C1395      C1398   1.449       .  S
C1396      C1399   1.449       .  S
C1397      N1404   1.156       .  T
C1398      N1403   1.158       .  T
C1399      N1401   1.157       .  T
C1400      N1402   1.158       .  T
C1405      C1406   1.419       .  A
C1405      C1410   1.405       .  A
C1406      C1407   1.409       .  A
C1406      C1411   1.444       .  S
C1407      C1408   1.411       .  A
C1407      C1414   1.454       .  S
C1408      C1409   1.434       .  A
C1409      C1410   1.417       .  A
C1409      C1412   1.451       .  S
C1410      C1413   1.453       .  S
C1411      N1418   1.156       .  T
C1412      N1417   1.157       .  T
C1413      N1415   1.157       .  T
C1414      N1416   1.156       .  T
C1419      C1420   1.425       .  A
C1420      C1425   1.450       .  S
C1421      C1422   1.406       .  A
C1422      C1423   1.419       .  A
C1423      C1424   1.399       .  A
C1423      C1426   1.453       .  S
C1424      C1427   1.449       .  S
C1425      N1432   1.157       .  T
C1426      N1431   1.157       .  T
C1427      N1429   1.155       .  T
C1428      N1430   1.157       .  T
C1433      C1434   1.432       .  A
C1434      C1439   1.449       .  S
C1435      C1436   1.416   1_545  A
C1436      C1437   1.420       .  A
C1437      C1438   1.428       .  A
C1437      C1440   1.450       .  S
C1438      C1441   1.449       .  S
C1439      N1446   1.158       .  T
C1440      N1445   1.157       .  T
C1441      N1443   1.156       .  T
C1442      N1444   1.157       .  T
C1447      C1448   1.432       .  A
C1447      C1452   1.418       .  A
C1448      C1449   1.418       .  A
C1448      C1453   1.451       .  S
C1449      C1450   1.406       .  A
C1449      C1456   1.452       .  S
C1450      C1451   1.413       .  A
C1451      C1452   1.413       .  A
C1451      C1454   1.453       .  S
C1452      C1455   1.447       .  S
C1453      N1460   1.157       .  T
C1454      N1459   1.158       .  T
C1455      N1457   1.157       .  T
C1456      N1458   1.157       .  T
C1461      C1462   1.423       .  A
C1461      C1466   1.405       .  A
C1462      C1463   1.412       .  A
C1462      C1467   1.452       .  S
C1463      C1464   1.415       .  A
C1463      C1470   1.453       .  S
C1465      C1468   1.449       .  S
C1466      C1469   1.451       .  S
C1467      N1474   1.158       .  T
C1468      N1473   1.157       .  T
C1469      N1471   1.157       .  T
C1470      N1472   1.158       .  T
C1475      C1476   1.396       .  A
C1475      C1480   1.419       .  A
C1476      C1477   1.393       .  A
C1476      C1481   1.455       .  S
C1477      C1478   1.437       .  A
C1477      C1484   1.457       .  S
C1478      C1479   1.406       .  A
C1479      C1480   1.402       .  A
C1479      C1482   1.452       .  S
C1480      C1483   1.453       .  S
C1481      N1488   1.156       .  T
C1482      N1487   1.157       .  T
C1483      N1485   1.158       .  T
C1484      N1486   1.158       .  T
C1489      C1490   1.426       .  A
C1489      C1494   1.420       .  A
C1490      C1491   1.415       .  A
C1490      C1495   1.453       .  S
C1491      C1492   1.417       .  A
C1491      C1498   1.454       .  S
C1492      C1493   1.418       .  A
C1493      C1494   1.410       .  A
C1493      C1496   1.449       .  S
C1494      C1497   1.455       .  S
C1495      N1502   1.158       .  T
C1496      N1501   1.156       .  T
C1497      N1499   1.158       .  T
C1498      N1500   1.158       .  T
C1503      C1504   1.412       .  A
C1503      C1508   1.409       .  A
C1504      C1505   1.420       .  A
C1504      C1509   1.451       .  S
C1505      C1506   1.424       .  A
C1505      C1512   1.450       .  S
C1506      C1507   1.431       .  A
C1507      C1508   1.414       .  A
C1507      C1510   1.453       .  S
C1508      C1511   1.454       .  S
C1509      N1516   1.157       .  T
C1510      N1515   1.158       .  T
C1511      N1513   1.157       .  T
C1512      N1514   1.157       .  T
C1517      C1518   1.412       .  A
C1517      C1522   1.401   1_556  A
C1518      C1519   1.391       .  A
C1518      C1523   1.453       .  S
C1519      C1520   1.398   1_556  A
C1519      C1526   1.447       .  S
C1520      C1521   1.418       .  A
C1521      C1522   1.392       .  A
C1521      C1524   1.454       .  S
C1522      C1525   1.453       .  S
C1523      N1530   1.158       .  T
C1524      N1529   1.158       .  T
C1525      N1527   1.157       .  T
C1526      N1528   1.156       .  T
C1531      C1532   1.405       .  A
C1531      C1536   1.404       .  A
C1532      C1533   1.413       .  A
C1532      C1537   1.447       .  S
C1533      C1534   1.424       .  A
C1533      C1540   1.451       .  S
C1534      C1535   1.433       .  A
C1535      C1536   1.406       .  A
C1535      C1538   1.455       .  S
C1536      C1539   1.455       .  S
C1537      N1544   1.156       .  T
C1538      N1543   1.158       .  T
C1539      N1541   1.157       .  T
C1540      N1542   1.158       .  T
C1545      C1550   1.425       .  A
C1546      C1547   1.432       .  A
C1546      C1551   1.451       .  S
C1547      C1548   1.431       .  A
C1547      C1554   1.451       .  S
C1548      C1549   1.428   1_565  A
C1550      C1553   1.449       .  S
C1551      N1558   1.157       .  T
C1552      N1557   1.158       .  T
C1553      N1555   1.157       .  T
C1554      N1556   1.158       .  T
C1559      C1560   1.420       .  A
C1559      C1564   1.417       .  A
C1560      C1561   1.404   1_554  A
C1560      C1565   1.435   1_554  S
C1561      C1562   1.404       .  A
C1561      C1568   1.457       .  S
C1562      C1563   1.417   1_556  A
C1563      C1564   1.416       .  A
C1564      C1567   1.445       .  S
C1565      N1572   1.153       .  T
C1566      N1571   1.158       .  T
C1567      N1569   1.157       .  T
C1568      N1570   1.157       .  T
C1573      C1574   1.402       .  A
C1573      C1578   1.426       .  A
C1574      C1575   1.417       .  A
C1574      C1579   1.450       .  S
C1575      C1576   1.436   1_556  A
C1575      C1582   1.450       .  S
C1576      C1577   1.409       .  A
C1577      C1578   1.411   1_554  A
C1577      C1580   1.453       .  S
C1578      C1581   1.451       .  S
C1579      N1586   1.157       .  T
C1580      N1585   1.158       .  T
C1581      N1583   1.157       .  T
C1582      N1584   1.158       .  T
C1587      C1588   1.429       .  A
C1587      C1592   1.423       .  A
C1588      C1589   1.413       .  A
C1588      C1593   1.454       .  S
C1589      C1590   1.412       .  A
C1589      C1596   1.453       .  S
C1590      C1591   1.416       .  A
C1591      C1592   1.414       .  A
C1591      C1594   1.454       .  S
C1592      C1595   1.452       .  S
C1593      N1600   1.158       .  T
C1594      N1599   1.157       .  T
C1595      N1597   1.158       .  T
C1596      N1598   1.158       .  T
C1601      C1602   1.423       .  A
C1601      C1606   1.417       .  A
C1602      C1603   1.426       .  A
C1602      C1607   1.448       .  S
C1603      C1604   1.425       .  A
C1603      C1610   1.452       .  S
C1604      C1605   1.431       .  A
C1605      C1606   1.430       .  A
C1605      C1608   1.449       .  S
C1606      C1609   1.451       .  S
C1607      N1614   1.156       .  T
C1608      N1613   1.157       .  T
C1609      N1611   1.157       .  T
C1610      N1612   1.158       .  T
C1615      C1616   1.415       .  A
C1615      C1620   1.418       .  A
C1616      C1621   1.442       .  S
C1617      C1618   1.412   1_544  A
C1617      C1624   1.454   1_544  S
C1619      C1620   1.419       .  A
C1620      C1623   1.447       .  S
C1621      N1628   1.155       .  T
C1622      N1627   1.157   1_554  T
C1623      N1625   1.156       .  T
C1624      N1626   1.158       .  T
C1629      C1630   1.413   1_554  A
C1629      C1634   1.414   1_554  A
C1630      C1631   1.416       .  A
C1630      C1635   1.453   1_556  S
C1631      C1632   1.413       .  A
C1631      C1638   1.440       .  S
C1632      C1633   1.414       .  A
C1633      C1634   1.419       .  A
C1633      C1636   1.447       .  S
C1634      C1637   1.449       .  S
C1635      N1642   1.158       .  T
C1636      N1641   1.157       .  T
C1637      N1639   1.157       .  T
C1638      N1640   1.155       .  T
C1643      C1644   1.432       .  A
C1643      C1648   1.412   1_556  A
C1644      C1645   1.388       .  A
C1644      C1649   1.457       .  S
C1645      C1646   1.394   1_556  A
C1645      C1652   1.456       .  S
C1646      C1647   1.413       .  A
C1647      C1648   1.393       .  A
C1647      C1650   1.454       .  S
C1648      C1651   1.453       .  S
C1649      N1656   1.158       .  T
C1650      N1655   1.158       .  T
C1651      N1653   1.158       .  T
C1652      N1654   1.157       .  T
C1657      C1658   1.414       .  A
C1657      C1662   1.404       .  A
C1658      C1659   1.419   1_655  A
C1658      C1663   1.450       .  S
C1659      C1660   1.419       .  A
C1659      C1666   1.450       .  S
C1660      C1661   1.427       .  A
C1661      C1662   1.412   1_455  A
C1661      C1664   1.446       .  S
C1662      C1665   1.454       .  S
C1663      N1670   1.157       .  T
C1664      N1669   1.156       .  T
C1665      N1667   1.157       .  T
C1666      N1668   1.157       .  T
C1671      C1672   1.429       .  A
C1671      C1676   1.425       .  A
C1672      C1673   1.415       .  A
C1672      C1677   1.449       .  S
C1673      C1674   1.411       .  A
C1673      C1680   1.454       .  S
C1674      C1675   1.418       .  A
C1675      C1676   1.425       .  A
C1675      C1678   1.450       .  S
C1676      C1679   1.451       .  S
C1677      N1684   1.156       .  T
C1678      N1683   1.157       .  T
C1679      N1681   1.158       .  T
C1680      N1682   1.157       .  T
C1685      C1686   1.399       .  A
C1685      C1690   1.415       .  A
C1686      C1687   1.395       .  A
C1686      C1691   1.454       .  S
C1687      C1688   1.428       .  A
C1687      C1694   1.454       .  S
C1688      C1689   1.409       .  A
C1689      C1690   1.402       .  A
C1689      C1692   1.447       .  S
C1690      C1693   1.454       .  S
C1691      N1698   1.157       .  T
C1692      N1697   1.156       .  T
C1693      N1695   1.157       .  T
C1694      N1696   1.157       .  T
C1699      C1700   1.410       .  A
C1699      C1704   1.413       .  A
C1700      C1701   1.407       .  A
C1700      C1705   1.453       .  S
C1701      C1702   1.423       .  A
C1701      C1708   1.454       .  S
C1702      C1703   1.419       .  A
C1703      C1704   1.419       .  A
C1703      C1706   1.450       .  S
C1704      C1707   1.446       .  S
C1705      N1712   1.157       .  T
C1706      N1711   1.157       .  T
C1707      N1709   1.156       .  T
C1708      N1710   1.158       .  T
C1713      C1718   1.419       .  A
C1714      C1715   1.419       .  A
C1714      C1719   1.452       .  S
C1715      C1716   1.416       .  A
C1715      C1722   1.446       .  S
C1716      C1717   1.418       .  A
C1717      C1720   1.447       .  S
C1718      C1721   1.447       .  S
C1719      N1726   1.157       .  T
C1721      N1723   1.157       .  T
C1722      N1724   1.156       .  T
C1727      C1728   1.434       .  A
C1727      C1732   1.415       .  A
C1728      C1729   1.419       .  A
C1729      C1730   1.403       .  A
C1729      C1736   1.451       .  S
C1730      C1731   1.424       .  A
C1731      C1732   1.409       .  A
C1731      C1734   1.451       .  S
C1732      C1735   1.455       .  S
C1733      N1740   1.158       .  T
C1734      N1739   1.158       .  T
C1735      N1737   1.158       .  T
C1736      N1738   1.157       .  T
C1741      C1742   1.412       .  A
C1741      C1746   1.414       .  A
C1742      C1743   1.415       .  A
C1742      C1747   1.450       .  S
C1743      C1744   1.413       .  A
C1743      C1750   1.449       .  S
C1744      C1745   1.412       .  A
C1745      C1746   1.411       .  A
C1745      C1748   1.452       .  S
C1746      C1749   1.451       .  S
C1747      N1754   1.157       .  T
C1748      N1753   1.157       .  T
C1749      N1751   1.157       .  T
C1750      N1752   1.157       .  T
C1755      C1756   1.427       .  A
C1755      C1760   1.420   1_655  A
C1756      C1757   1.410   1_655  A
C1756      C1761   1.443       .  S
C1757      C1758   1.404       .  A
C1757      C1764   1.456       .  S
C1758      C1759   1.418       .  A
C1759      C1760   1.425       .  A
C1759      C1762   1.449       .  S
C1760      C1763   1.449   1_455  S
C1761      N1768   1.155       .  T
C1762      N1767   1.157       .  T
C1763      N1765   1.157       .  T
C1764      N1766   1.157       .  T
C1769      C1770   1.426       .  A
C1769      C1774   1.410       .  A
C1770      C1771   1.435       .  A
C1770      C1775   1.448       .  S
C1771      C1772   1.423       .  A
C1771      C1778   1.448       .  S
C1772      C1773   1.418       .  A
C1773      C1774   1.414       .  A
C1773      C1776   1.443       .  S
C1774      C1777   1.446       .  S
C1775      N1782   1.157       .  T
C1776      N1781   1.155       .  T
C1777      N1779   1.156       .  T
C1778      N1780   1.157       .  T
C1783      C1784   1.424       .  A
C1783      C1788   1.401       .  A
C1784      C1785   1.408       .  A
C1784      C1789   1.450       .  S
C1785      C1792   1.454       .  S
C1786      C1787   1.433       .  A
C1787      C1790   1.451       .  S
C1789      N1796   1.158       .  T
C1790      N1795   1.158       .  T
C1791      N1793   1.157       .  T
C1792      N1794   1.158       .  T
C1797      C1798   1.398       .  A
C1797      C1802   1.424       .  A
C1798      C1799   1.398       .  A
C1798      C1803   1.453       .  S
C1799      C1800   1.422       .  A
C1799      C1806   1.450       .  S
C1800      C1801   1.410       .  A
C1801      C1802   1.422       .  A
C1801      C1804   1.447       .  S
C1802      C1805   1.449       .  S
C1803      N1810   1.158       .  T
C1804      N1809   1.157       .  T
C1805      N1807   1.157       .  T
C1806      N1808   1.156       .  T
C1811      C1812   1.424       .  A
C1811      C1816   1.409       .  A
C1812      C1813   1.401       .  A
C1812      C1817   1.455       .  S
C1813      C1814   1.407       .  A
C1813      C1820   1.452       .  S
C1814      C1815   1.413       .  A
C1815      C1816   1.395       .  A
C1815      C1818   1.453       .  S
C1816      C1819   1.452       .  S
C1817      N1824   1.158       .  T
C1818      N1823   1.157       .  T
C1819      N1821   1.157       .  T
C1820      N1822   1.157       .  T
C1825      C1826   1.403       .  A
C1825      C1830   1.421       .  A
C1826      C1827   1.409       .  A
C1826      C1831   1.448       .  S
C1827      C1828   1.409       .  A
C1827      C1834   1.435       .  S
C1828      C1829   1.404       .  A
C1829      C1830   1.418       .  A
C1829      C1832   1.448       .  S
C1830      C1833   1.446       .  S
C1831      N1838   1.157       .  T
C1832      N1837   1.157       .  T
C1833      N1835   1.157       .  T
C1834      N1836   1.152       .  T
C1839      C1840   1.424       .  A
C1839      C1844   1.433       .  A
C1840      C1841   1.421       .  A
C1840      C1845   1.450       .  S
C1841      C1842   1.415       .  A
C1841      C1848   1.452       .  S
C1842      C1843   1.408       .  A
C1843      C1844   1.413       .  A
C1843      C1846   1.451       .  S
C1844      C1847   1.454       .  S
C1845      N1852   1.158       .  T
C1846      N1851   1.156       .  T
C1847      N1849   1.158       .  T
C1848      N1850   1.157       .  T
C1853      C1854   1.417       .  A
C1853      C1858   1.401   1_655  A
C1854      C1855   1.421   1_655  A
C1854      C1859   1.449       .  S
C1855      C1856   1.417       .  A
C1855      C1862   1.450       .  S
C1856      C1857   1.426       .  A
C1857      C1858   1.409       .  A
C1857      C1860   1.451       .  S
C1858      C1861   1.446       .  S
C1859      N1866   1.157       .  T
C1860      N1865   1.158       .  T
C1861      N1863   1.156       .  T
C1862      N1864   1.157       .  T
C1867      C1868   1.414       .  A
C1867      C1872   1.412       .  A
C1868      C1869   1.405       .  A
C1868      C1873   1.453       .  S
C1869      C1870   1.415       .  A
C1869      C1876   1.455       .  S
C1870      C1871   1.416       .  A
C1871      C1872   1.419       .  A
C1871      C1874   1.448       .  S
C1872      C1875   1.449       .  S
C1873      N1880   1.157       .  T
C1874      N1879   1.157       .  T
C1875      N1877   1.157       .  T
C1876      N1878   1.158       .  T
C1881      C1882   1.419       .  A
C1881      C1886   1.399   1_556  A
C1882      C1883   1.398       .  A
C1882      C1887   1.454       .  S
C1883      C1884   1.401   1_556  A
C1883      C1890   1.453       .  S
C1884      C1885   1.421       .  A
C1885      C1886   1.395       .  A
C1885      C1888   1.454       .  S
C1886      C1889   1.453       .  S
C1887      N1894   1.157       .  T
C1888      N1893   1.157       .  T
C1889      N1891   1.157       .  T
C1890      N1892   1.157       .  T
C1895      C1896   1.414       .  A
C1895      C1900   1.433       .  A
C1896      C1897   1.412       .  A
C1896      C1901   1.451       .  S
C1897      C1898   1.417       .  A
C1897      C1904   1.450       .  S
C1898      C1899   1.400       .  A
C1899      C1900   1.408       .  A
C1899      C1902   1.454       .  S
C1900      C1903   1.452       .  S
C1901      N1908   1.157       .  T
C1902      N1907   1.157       .  T
C1903      N1905   1.157       .  T
C1904      N1906   1.157       .  T
C1909      C1910   1.427       .  A
C1909      C1914   1.419       .  A
C1910      C1911   1.409       .  A
C1910      C1915   1.454       .  S
C1911      C1912   1.407       .  A
C1911      C1918   1.454       .  S
C1912      C1913   1.412       .  A
C1913      C1914   1.418       .  A
C1913      C1916   1.450       .  S
C1914      C1917   1.449       .  S
C1915      N1922   1.157       .  T
C1916      N1921   1.157       .  T
C1917      N1919   1.157       .  T
C1918      N1920   1.157       .  T
C1923      C1924   1.411       .  A
C1923      C1928   1.418       .  A
C1924      C1925   1.410       .  A
C1924      C1929   1.441       .  S
C1925      C1926   1.419       .  A
C1925      C1932   1.450       .  S
C1926      C1927   1.428       .  A
C1927      C1928   1.438       .  A
C1927      C1930   1.445       .  S
C1928      C1931   1.448       .  S
C1929      N1936   1.154       .  T
C1930      N1935   1.157       .  T
C1931      N1933   1.157       .  T
C1932      N1934   1.157       .  T
C1937      C1942   1.419   1_554  A
C1938      C1939   1.411   1_554  A
C1939      C1940   1.411       .  A
C1939      C1946   1.449       .  S
C1940      C1941   1.409       .  A
C1941      C1944   1.448       .  S
C1942      C1945   1.449       .  S
C1943      N1950   1.156   1_545  T
C1944      N1949   1.157       .  T
C1945      N1947   1.157       .  T
C1946      N1948   1.156       .  T
C1951      C1952   1.419   1_556  A
C1951      C1956   1.405       .  A
C1952      C1953   1.410       .  A
C1952      C1957   1.450       .  S
C1953      C1954   1.412       .  A
C1953      C1960   1.451       .  S
C1954      C1955   1.434       .  A
C1955      C1956   1.415   1_554  A
C1955      C1958   1.453       .  S
C1956      C1959   1.453       .  S
C1957      N1964   1.156       .  T
C1958      N1963   1.158       .  T
C1959      N1961   1.157       .  T
C1960      N1962   1.157       .  T
C1965      C1966   1.416       .  A
C1965      C1970   1.414   1_655  A
C1966      C1967   1.419   1_655  A
C1966      C1971   1.451       .  S
C1967      C1968   1.424       .  A
C1967      C1974   1.451       .  S
C1968      C1969   1.428       .  A
C1969      C1970   1.412       .  A
C1969      C1972   1.454       .  S
C1970      C1973   1.456   1_455  S
C1971      N1978   1.157       .  T
C1972      N1977   1.158   1_554  T
C1973      N1975   1.158       .  T
C1974      N1976   1.158       .  T
C1979      C1980   1.420       .  A
C1979      C1984   1.428       .  A
C1980      C1981   1.418       .  A
C1980      C1985   1.450       .  S
C1981      C1982   1.412       .  A
C1981      C1988   1.451       .  S
C1982      C1983   1.407       .  A
C1983      C1984   1.407       .  A
C1983      C1986   1.454       .  S
C1984      C1987   1.455       .  S
C1985      N1992   1.157       .  T
C1986      N1991   1.157       .  T
C1987      N1989   1.158       .  T
C1988      N1990   1.157       .  T
C1993      C1998   1.423       .  A
C1994      C1995   1.416       .  A
C1994      C1999   1.450       .  S
C1995      C1996   1.418       .  A
C1995      C2002   1.445       .  S
C1996      C1997   1.419       .  A
C1997      C2000   1.448       .  S
C1998      C2001   1.448       .  S
C1999      N2006   1.156       .  T
C2001      N2003   1.157       .  T
C2002      N2004   1.155       .  T
C2007      C2008   1.425   1_556  A
C2007      C2012   1.405       .  A
C2008      C2009   1.413       .  A
C2008      C2013   1.451       .  S
C2009      C2010   1.412       .  A
C2009      C2016   1.453       .  S
C2011      C2014   1.451       .  S
C2012      C2015   1.450       .  S
C2013      N2020   1.158       .  T
C2014      N2019   1.157       .  T
C2015      N2017   1.157       .  T
C2016      N2018   1.158       .  T
C2021      C2022   1.420       .  A
C2021      C2026   1.417       .  A
C2022      C2023   1.418       .  A
C2022      C2027   1.449       .  S
C2023      C2024   1.417   1_554  A
C2023      C2030   1.453   1_554  S
C2024      C2025   1.412   1_556  A
C2025      C2026   1.415       .  A
C2025      C2028   1.444       .  S
C2026      C2029   1.453       .  S
C2027      N2034   1.157       .  T
C2028      N2033   1.155       .  T
C2029      N2031   1.157       .  T
C2030      N2032   1.157       .  T
C2035      C2036   1.408   1_554  A
C2035      C2040   1.424       .  A
C2036      C2037   1.387       .  A
C2036      C2041   1.455       .  S
C2037      C2038   1.420       .  A
C2037      C2044   1.458       .  S
C2038      C2039   1.406   1_556  A
C2039      C2040   1.391       .  A
C2039      C2042   1.456       .  S
C2040      C2043   1.457       .  S
C2041      N2048   1.157       .  T
C2042      N2047   1.158       .  T
C2043      N2045   1.158       .  T
C2044      N2046   1.158       .  T
