geometry optimzed in LAMMPS
_audit_creation_date              2020-12-01 
_audit_creation_method            'lammps2cif' 
_symmetry_space_group_name_H-M    'P1' 
_symmetry_Int_Tables_number       1 
_symmetry_cell_setting            triclinic 
loop_ 
_symmetry_equiv_pos_as_xyz 
  x,y,z 
_cell_length_a                    43.70563969 
_cell_length_b                    30.78816634255882 
_cell_length_c                    39.73936428550937 
_cell_angle_alpha                 89.26393876371417 
_cell_angle_beta                  89.51758391680455 
_cell_angle_gamma                 89.61108091645102 
loop_ 
_atom_site_label 
_atom_site_type_symbol 
_atom_site_fract_x 
_atom_site_fract_y 
_atom_site_fract_z 
_atom_site_charge 
O1          O  0.12969556  0.86237079  0.40653210    -0.85300
O2          O  0.11529844  0.92859790  0.36318582    -0.82400
C3          C  0.10911122  0.95770542  0.38438207     0.98100
O4          O  0.13026715  0.97369285  0.40180803    -0.82400
O5          O  0.18944448  0.98651729  0.42684640    -0.85100
C6          C  0.19409025  0.96291507  0.45205262     1.02700
O7          O  0.18703064  0.92359868  0.45150818    -0.77800
O8          O  0.17282216  0.84352656  0.43005926    -0.78000
C9          C  0.14408687  0.84765425  0.43199897     1.02600
O10         O  0.17532564  0.83072949  0.35806739    -0.85300
O11         O  0.16560576  0.90924087  0.31826532    -0.82400
C12         C  0.16290964  0.95017820  0.31270254     0.98200
O13         O  0.15667473  0.97470764  0.33681673    -0.82400
O14         O  0.21499683  0.97586531  0.36406843    -0.85000
C15         C  0.23785404  0.96040863  0.37983100     1.02600
O16         O  0.23481111  0.93068268  0.40185423    -0.77800
O17         O  0.21920891  0.85187881  0.37752899    -0.78000
C18         C  0.20376061  0.82440995  0.36198501     1.02600
Cr19       Cr  0.14864493  0.88427754  0.36284258     1.93700
Cr20       Cr  0.17266548  0.97285651  0.38278542     1.93200
Cr21       Cr  0.20143032  0.88932412  0.41305840     1.39100
O22         O  0.17484482  0.91525586  0.38585324    -1.23100
O23         O  0.33907859  0.61781753  0.40242903    -0.85300
O24         O  0.35089318  0.55236635  0.35731776    -0.82400
C25         C  0.35520640  0.51910817  0.37576637     0.98100
O26         O  0.33400746  0.50516956  0.39466928    -0.82400
O27         O  0.27685947  0.49691721  0.42495363    -0.85100
C28         C  0.27612532  0.51942435  0.45101656     1.02700
O29         O  0.28481814  0.55795072  0.44953797    -0.77800
O30         O  0.29709492  0.63894813  0.42707894    -0.78000
C31         C  0.32584785  0.63390363  0.42803524     1.02600
O32         O  0.29094244  0.65233083  0.35623705    -0.85300
O33         O  0.30157426  0.57747665  0.31472002    -0.82400
C34         C  0.30226427  0.53683777  0.30832880     0.98200
O35         O  0.30504741  0.50972611  0.33200621    -0.82400
O36         O  0.24868124  0.51169459  0.36337441    -0.85000
C37         C  0.22730871  0.52567781  0.38203486     1.02600
O38         O  0.23264051  0.55229600  0.40531455    -0.77800
O39         O  0.24782069  0.62987051  0.37851465    -0.78000
C40         C  0.26227174  0.65737766  0.36131670     1.02600
Cr41       Cr  0.31852533  0.59872980  0.35932872     1.93700
Cr42       Cr  0.29149174  0.51049096  0.37914631     1.93200
Cr43       Cr  0.26751240  0.59298620  0.41279507     1.39100
O44         O  0.29197664  0.56766229  0.38304822    -1.23100
O45         O  0.13666447  0.12266437  0.08771914    -0.85300
O46         O  0.12545060  0.05832532  0.13456887    -0.82400
C47         C  0.12248959  0.02449134  0.11703876     0.98100
O48         O  0.14494071  0.00921918  0.10078264    -0.82400
O49         O  0.20322043  0.00080077  0.07356009    -0.85100
C50         C  0.20327242  0.02130378  0.04617900     1.02700
O51         O  0.19376034  0.05985230  0.04524709    -0.77800
O52         O  0.17898952  0.14235747  0.06302169    -0.78000
C53         C  0.15037097  0.13692416  0.06158310     1.02600
O54         O  0.18317885  0.16042163  0.13382084    -0.85300
O55         O  0.17291965  0.08687137  0.17835927    -0.82400
C56         C  0.17322542  0.04655479  0.18653087     0.98200
O57         O  0.17120108  0.01836467  0.16418014    -0.82400
O58         O  0.22887472  0.02191582  0.13502126    -0.85000
C59         C  0.25027295  0.03479331  0.11571451     1.02600
O60         O  0.24463189  0.05939298  0.09079771    -0.77800
O61         O  0.22726419  0.13834150  0.11330729    -0.78000
C62         C  0.21184119  0.16608973  0.12914039     1.02600
Cr63       Cr  0.15676650  0.10569009  0.13217025     1.93700
Cr64       Cr  0.18663492  0.01725214  0.11781869     1.93200
Cr65       Cr  0.20919780  0.09835277  0.08043027     1.39100
O66         O  0.18460824  0.07412854  0.11075550    -1.23100
O67         O  0.35768042  0.36287164  0.08863887    -0.85300
O68         O  0.36908238  0.42879235  0.13344456    -0.82400
C69         C  0.37546198  0.46214253  0.11540927     0.98100
O70         O  0.35583516  0.47746665  0.09539096    -0.82400
O71         O  0.30089778  0.48826693  0.06261345    -0.85100
C72         C  0.30099716  0.46576548  0.03658023     1.02700
O73         O  0.30934914  0.42701732  0.03829801    -0.77800
O74         O  0.31714198  0.34491994  0.06077398    -0.78000
C75         C  0.34585618  0.34851088  0.06180049     1.02600
O76         O  0.30596444  0.33187725  0.13200026    -0.85300
O77         O  0.31497341  0.40749514  0.17351457    -0.82400
C78         C  0.31645266  0.44814572  0.17969867     0.98200
O79         O  0.32385629  0.47379092  0.15633794    -0.82400
O80         O  0.26904692  0.47414864  0.12265801    -0.85000
C81         C  0.24818011  0.46249127  0.10289368     1.02600
O82         O  0.25417344  0.43669518  0.07907570    -0.77800
O83         O  0.26553671  0.35715309  0.10600156    -0.78000
C84         C  0.27776587  0.32838752  0.12418318     1.02600
Cr85       Cr  0.33520291  0.38405998  0.13033858     1.93700
Cr86       Cr  0.31251582  0.47382086  0.10879417     1.93200
Cr87       Cr  0.28833724  0.39316269  0.07340362     1.39100
O88         O  0.31160781  0.41666154  0.10463640    -1.23100
O89         O  0.42886455  0.87683614  0.04879566    -0.85300
O90         O  0.46660697  0.94437589  0.05106735    -0.82400
C91         C  0.44897103  0.97607860  0.04598718     0.98100
O92         O  0.42938174  0.98704944  0.06771818    -0.82400
O93         O  0.39283973  0.97985600  0.12474483    -0.85100
C94         C  0.36985963  0.95603782  0.12016574     1.02700
O95         O  0.37285817  0.91615932  0.11480140    -0.77800
O96         O  0.39935457  0.84546805  0.08685951    -0.78000
C97         C  0.40560873  0.85470307  0.05584435     1.02600
O98         O  0.46378939  0.83332239  0.09954175    -0.85300
O99         O  0.99748744  0.90775258  0.10578049    -0.82400
C100        C  0.00363780  0.94729717  0.10980274     0.98200
O101        O  0.98281013  0.97602991  0.10866442    -0.82400
O102        O  0.44600320  0.96258489  0.16346294    -0.85000
C103        C  0.42618521  0.94781173  0.18356390     1.02600
O104        O  0.40921674  0.91646498  0.17417453    -0.77800
O105        O  0.44176565  0.84328946  0.14821318    -0.78000
C106        C  0.46137477  0.82385755  0.13026705     1.02600
Cr107      Cr  0.46192410  0.89213385  0.07902379     1.93700
Cr108      Cr  0.43747061  0.97188958  0.11558837     1.93200
Cr109      Cr  0.40844283  0.88196793  0.12954155     1.39100
O110        O  0.43562797  0.91540204  0.10813276    -1.23100
O111        O  0.06043217  0.61824143  0.05508871    -0.85300
O112        O  0.01874438  0.55274349  0.06298359    -0.82400
C113        C  0.03719641  0.52791887  0.04917839     0.98100
O114        O  0.06085983  0.51629904  0.06430496    -0.82400
O115        O  0.10579739  0.51431513  0.10962490    -0.85100
C116        C  0.12768181  0.53855399  0.11684336     1.02700
O117        O  0.12335683  0.57669336  0.12651533    -0.77800
O118        O  0.09645454  0.64216282  0.08938857    -0.78000
C119        C  0.08656883  0.63486116  0.05931924     1.02600
O120        O  0.52986954  0.66138986  0.10490973    -0.85300
O121        O  0.49870423  0.58255084  0.12165710    -0.82400
C122        C  0.49423310  0.54177865  0.12470945     0.98200
O123        O  0.51565443  0.51461300  0.11864772    -0.82400
O124        O  0.06389072  0.51505475  0.16300993    -0.85000
C125        C  0.07204392  0.54012328  0.18597826     1.02600
O126        O  0.07978552  0.57947861  0.18002494    -0.77800
O127        O  0.05384701  0.65308944  0.15238686    -0.78000
C128        C  0.03445553  0.67331267  0.13505679     1.02600
Cr129      Cr  0.02995324  0.60216639  0.08946403     1.93700
Cr130      Cr  0.06129891  0.51999761  0.11418058     1.93200
Cr131      Cr  0.08585565  0.61098421  0.13507214     1.39100
O132        O  0.05945249  0.57754540  0.11381983    -1.23100
O133        O  0.42100032  0.14942753  0.42659363    -0.85300
O134        O  0.43069293  0.06746860  0.45053512    -0.82400
C135        C  0.43760867  0.02790621  0.45218120     0.98100
O136        O  0.43449013  0.00473862  0.42676974    -0.82400
O137        O  0.37768001  0.02053320  0.39717819    -0.85100
C138        C  0.35677380  0.03845332  0.37997980     1.02700
O139        O  0.36298018  0.06853075  0.35929768    -0.77800
O140        O  0.37803367  0.13197412  0.40355279    -0.78000
C141        C  0.39238088  0.14609550  0.42886588     1.02600
O142        O  0.46819171  0.13546575  0.37676822    -0.85300
O143        O  0.98095589  0.05614686  0.40467096    -0.82400
C144        C  0.98559188  0.02675903  0.38333201     0.98200
O145        O  0.96403724  0.01376058  0.36479478    -0.82400
O146        O  0.40704833  0.01932196  0.33345024    -0.85000
C147        C  0.41156723  0.04558099  0.30936296     1.02600
O148        O  0.41397401  0.08622705  0.31539318    -0.77800
O149        O  0.42584924  0.16185883  0.35563841    -0.78000
C150        C  0.45448667  0.16438943  0.35993866     1.02600
Cr151      Cr  0.44819476  0.10070951  0.41246650     1.93700
Cr152      Cr  0.42057096  0.01961654  0.38081145     1.93200
Cr153      Cr  0.39736705  0.11040480  0.36003497     1.39100
O154        O  0.42266921  0.07699659  0.38376076    -1.23100
O155        O  0.04465620  0.37526280  0.44475223    -0.85300
O156        O  0.00337216  0.43871592  0.43488680    -0.82400
C157        C  0.01773175  0.47340556  0.43964779     0.98100
O158        O  0.03843883  0.48597342  0.41970906    -0.82400
O159        O  0.08175029  0.47940311  0.36869846    -0.85100
C160        C  0.10458367  0.45845795  0.37992451     1.02700
O161        O  0.10206363  0.41926772  0.38868760    -0.77800
O162        O  0.07822526  0.34360906  0.41184290    -0.78000
C163        C  0.06888814  0.35356206  0.44142424     1.02600
O164        O  0.51885160  0.32598209  0.39154963    -0.85300
O165        O  0.48004890  0.39623469  0.37888687    -0.82400
C166        C  0.47206281  0.43520003  0.37375445     0.98200
O167        O  0.49138840  0.46557486  0.37438200    -0.82400
O168        O  0.03337905  0.45103231  0.32549702    -0.85000
C169        C  0.05710273  0.44067554  0.30957450     1.02600
O170        O  0.07587576  0.41367267  0.32290346    -0.77800
O171        O  0.04553785  0.33675082  0.34588626    -0.78000
C172        C  0.02579757  0.31522989  0.36231616     1.02600
Cr173      Cr  0.01385079  0.38549085  0.41037402     1.93700
Cr174      Cr  0.03668813  0.46616981  0.37269220     1.93200
Cr175      Cr  0.07276953  0.37993688  0.36816025     1.39100
O176        O  0.04118601  0.41055841  0.38370230    -1.23100
O177        O  0.29835040  0.14562009  0.56021433    -0.85300
O178        O  0.29391312  0.06293958  0.53810203    -0.82400
C179        C  0.28755544  0.02342878  0.53644596     0.98100
O180        O  0.28908009  0.00011162  0.56244212    -0.82400
O181        O  0.34470639  0.01723624  0.59315191    -0.85100
C182        C  0.36469351  0.03560704  0.61075025     1.02700
O183        O  0.35738043  0.06645526  0.62993723    -0.77800
O184        O  0.34134557  0.12988393  0.58433899    -0.78000
C185        C  0.32706618  0.14366566  0.55852661     1.02600
O186        O  0.24952910  0.12945235  0.60742647    -0.85300
O187        O  0.24144668  0.04955620  0.58096698    -0.82400
C188        C  0.23670580  0.02209549  0.60430487     0.98200
O189        O  0.25814552  0.01020205  0.62373601    -0.82400
O190        O  0.31439705  0.01559453  0.65566621    -0.85000
C191        C  0.30789775  0.04128573  0.67899042     1.02600
O192        O  0.30508312  0.08197059  0.67236205    -0.77800
O193        O  0.29053559  0.15635511  0.63036016    -0.78000
C194        C  0.26192656  0.15846009  0.62456829     1.02600
Cr195      Cr  0.27270867  0.09517160  0.57393016     1.93700
Cr196      Cr  0.30160182  0.01546946  0.60841919     1.93200
Cr197      Cr  0.32163849  0.10707410  0.62775137     1.39100
O198        O  0.29797965  0.07274295  0.60419431    -1.23100
O199        O  0.16178837  0.34132804  0.56967919    -0.85300
O200        O  0.17667901  0.42097251  0.54458722    -0.82400
C201        C  0.18560497  0.45952746  0.54312595     0.98100
O202        O  0.18423024  0.48242450  0.56896468    -0.82400
O203        O  0.12670691  0.47603767  0.59948750    -0.85100
C204        C  0.10520028  0.46130919  0.61768531     1.02700
O205        O  0.11037951  0.43034852  0.63828251    -0.77800
O206        O  0.12047072  0.36358965  0.59529325    -0.78000
C207        C  0.13314705  0.34749354  0.56948098     1.02600
O208        O  0.21156953  0.34899272  0.61727521    -0.85300
O209        O  0.22807627  0.42548309  0.58873917    -0.82400
C210        C  0.23394973  0.45294013  0.61113578     0.98200
O211        O  0.21278612  0.46749929  0.63010748    -0.82400
O212        O  0.15577758  0.47284954  0.66239390    -0.85000
C213        C  0.15990560  0.44606486  0.68603439     1.02600
O214        O  0.16122242  0.40539357  0.68000651    -0.77800
O215        O  0.16836320  0.32767266  0.63981878    -0.78000
C216        C  0.19667981  0.32114800  0.63373043     1.02600
Cr217      Cr  0.19257866  0.38601610  0.58239992     1.93700
Cr218      Cr  0.16951477  0.47012976  0.61495034     1.93200
Cr219      Cr  0.14225547  0.38310599  0.63688210     1.39100
O220        O  0.16850269  0.41288351  0.61176353    -1.23100
O221        O  0.31165449  0.84339614  0.92747356    -0.85300
O222        O  0.30069343  0.92486076  0.95125094    -0.82400
C223        C  0.29238848  0.96391070  0.95249040     0.98100
O224        O  0.29207356  0.98649736  0.92604711    -0.82400
O225        O  0.34858865  0.97784212  0.89484813    -0.85100
C226        C  0.36956068  0.96218681  0.87659135     1.02700
O227        O  0.36418331  0.93055784  0.85736457    -0.77800
O228        O  0.35343282  0.86361230  0.90206398    -0.78000
C229        C  0.34024997  0.84823841  0.92822669     1.02600
O230        O  0.26158348  0.85524365  0.88146119    -0.85300
O231        O  0.24841375  0.93264229  0.90880090    -0.82400
C232        C  0.24222595  0.95878125  0.88503974     0.98200
O233        O  0.26288549  0.97232523  0.86512458    -0.82400
O234        O  0.31914582  0.97504115  0.83282235    -0.85000
C235        C  0.31360410  0.94962680  0.80925509     1.02600
O236        O  0.31267736  0.90875350  0.81563010    -0.77800
O237        O  0.30367407  0.83205010  0.85732822    -0.78000
C238        C  0.27521394  0.82753624  0.86383719     1.02600
Cr239      Cr  0.28248582  0.89079121  0.91497859     1.93700
Cr240      Cr  0.30589951  0.97339820  0.88007395     1.93200
Cr241      Cr  0.33158770  0.88502245  0.85959167     1.39100
O242        O  0.30629845  0.91614401  0.88444426    -1.23100
O243        O  0.18067555  0.64083496  0.92691959    -0.85300
O244        O  0.19743464  0.56145931  0.95000421    -0.82400
C245        C  0.20787468  0.52361064  0.95056133     0.98100
O246        O  0.20891802  0.50166575  0.92415915    -0.82400
O247        O  0.15354557  0.49772711  0.89194455    -0.85100
C248        C  0.13142209  0.51164674  0.87467654     1.02700
O249        O  0.13331616  0.54784734  0.85926399    -0.77800
O250        O  0.14009248  0.61386551  0.90454766    -0.78000
C251        C  0.15251920  0.63216065  0.92927567     1.02600
O252        O  0.23033116  0.63581297  0.87804978    -0.85300
O253        O  0.25090861  0.56123461  0.90720050    -0.82400
C254        C  0.25889700  0.53645774  0.88355203     0.98200
O255        O  0.23897030  0.52223424  0.86363995    -0.82400
O256        O  0.18468294  0.51141460  0.83046779    -0.85000
C257        C  0.18184061  0.53992741  0.80784062     1.02600
O258        O  0.17877645  0.58002503  0.81531330    -0.77800
O259        O  0.18578753  0.65522417  0.85770811    -0.78000
C260        C  0.21424593  0.66263884  0.86193181     1.02600
Cr261      Cr  0.21295290  0.59777671  0.91307395     1.93700
Cr262      Cr  0.19590865  0.51297259  0.87810579     1.93200
Cr263      Cr  0.16173692  0.59808160  0.86089051     1.39100
O264        O  0.19038893  0.56963045  0.88344033    -1.23100
O265        O  0.09277860  0.86059365  0.58663723    -0.85300
O266        O  0.10787915  0.92537153  0.62954617    -0.82400
C267        C  0.11368291  0.95532916  0.60838169     0.98100
O268        O  0.09236258  0.97289865  0.59159413    -0.82400
O269        O  0.03339329  0.98807121  0.56627514    -0.85100
C270        C  0.03032352  0.96562794  0.54054314     1.02700
O271        O  0.03801673  0.92637911  0.54136028    -0.77800
O272        O  0.04967731  0.84423803  0.56303668    -0.78000
C273        C  0.07836095  0.84713712  0.56115470     1.02600
O274        O  0.04621058  0.82934349  0.63540853    -0.85300
O275        O  0.05848125  0.90632812  0.67563530    -0.82400
C276        C  0.06115929  0.94707943  0.68136169     0.98200
O277        O  0.06627303  0.97244805  0.65693580    -0.82400
O278        O  0.50773042  0.97551898  0.62945839    -0.85000
C279        C  0.48523080  0.96126461  0.61300554     1.02600
O280        O  0.48893407  0.93407065  0.58974829    -0.77800
O281        O  0.50328482  0.85484885  0.61475723    -0.78000
C282        C  0.01769004  0.82518998  0.63041194     1.02600
Cr283      Cr  0.07416399  0.88202060  0.63044743     1.93700
Cr284      Cr  0.05018283  0.97231937  0.61072586     1.93200
Cr285      Cr  0.02210119  0.89135598  0.57929738     1.39100
O286        O  0.04824002  0.91492908  0.60741104    -1.23100
O287        O  0.37247186  0.63074740  0.58466689    -0.85300
O288        O  0.35805167  0.56610471  0.62966750    -0.82400
C289        C  0.35317686  0.53448322  0.61054031     0.98100
O290        O  0.37498248  0.51834413  0.59335613    -0.82400
O291        O  0.43521385  0.50552587  0.56697503    -0.85100
C292        C  0.43898879  0.52877988  0.54115054     1.02700
O293        O  0.42958310  0.56718070  0.54141306    -0.77800
O294        O  0.41596095  0.64840271  0.56135851    -0.78000
C295        C  0.38731693  0.64429093  0.55906846     1.02600
O296        O  0.41841364  0.66398023  0.63251407    -0.85300
O297        O  0.40651601  0.58696535  0.67380970    -0.82400
C298        C  0.40359736  0.54645376  0.68091710     0.98200
O299        O  0.40022307  0.51959206  0.65776811    -0.82400
O300        O  0.95967888  0.51912181  0.63044723    -0.85000
C301        C  0.98210631  0.53364071  0.61329552     1.02600
O302        O  0.97777584  0.56135563  0.58995502    -0.77800
O303        O  0.46198007  0.63936155  0.61312921    -0.78000
C304        C  0.44714348  0.66826243  0.62830264     1.02600
Cr305      Cr  0.39109375  0.61041131  0.62879811     1.93700
Cr306      Cr  0.41716366  0.52025986  0.61155911     1.93200
Cr307      Cr  0.44432452  0.60218469  0.57861198     1.39100
O308        O  0.41800796  0.57782791  0.60692769    -1.23100
O309        O  0.10178789  0.12327657  0.90330974    -0.85300
O310        O  0.11423123  0.05671428  0.86103171    -0.82400
C311        C  0.11969247  0.02713645  0.88263017     0.98100
O312        O  0.09840356  0.01206318  0.90098793    -0.82400
O313        O  0.03882039  0.00150862  0.92890343    -0.85100
C314        C  0.03487295  0.02656632  0.95336820     1.02700
O315        O  0.04588096  0.06368222  0.95144092    -0.77800
O316        O  0.05958686  0.14308155  0.92833772    -0.78000
C317        C  0.08838674  0.13784460  0.92936521     1.02600
O318        O  0.05371456  0.15518415  0.85528235    -0.85300
O319        O  0.06421855  0.07796477  0.81696654    -0.82400
C320        C  0.06591870  0.03711758  0.81153426     0.98200
O321        O  0.07175303  0.01172999  0.83588719    -0.82400
O322        O  0.51448382  0.01353866  0.86527448    -0.85000
C323        C  0.49205812  0.02910806  0.88150967     1.02600
O324        O  0.49594981  0.05719936  0.90419301    -0.77800
O325        O  0.51108925  0.13409323  0.87825533    -0.78000
C326        C  0.02495464  0.15954351  0.85959410     1.02600
Cr327      Cr  0.08144893  0.10207861  0.86068020     1.93700
Cr328      Cr  0.05628702  0.01394086  0.88308329     1.93200
Cr329      Cr  0.02996970  0.09745347  0.91349292     1.39100
O330        O  0.05532952  0.07144758  0.88517054    -1.23100
O331        O  0.40831758  0.34874254  0.90567372    -0.85300
O332        O  0.38249556  0.42156051  0.87980362    -0.82400
C333        C  0.38096646  0.46223488  0.87843320     0.98100
O334        O  0.40481821  0.48519216  0.87581224    -0.82400
O335        O  0.45176697  0.47876298  0.92371424    -0.85100
C336        C  0.47519848  0.46369375  0.93807131     1.02700
O337        O  0.48931458  0.43224115  0.92604382    -0.77800
O338        O  0.44457375  0.37396374  0.93800691    -0.78000
C339        C  0.41850198  0.35720879  0.93536886     1.02600
O340        O  0.44338987  0.34249663  0.83723008    -0.88500
O341        O  0.41386567  0.42109746  0.81699830    -0.82400
C342        C  0.42905693  0.45443090  0.80691458     0.98200
O343        O  0.44925276  0.47019523  0.82518384    -0.82400
O344        O  0.99573040  0.46674175  0.86935317    -0.85000
C345        C  0.01378343  0.43512041  0.86330623     1.02600
O346        O  0.00491465  0.39618354  0.86665892    -0.77800
O347        O  0.46637408  0.32589918  0.88342651    -0.78000
C348        C  0.46164000  0.31819434  0.85322211     1.02600
Cr349      Cr  0.41480931  0.38465818  0.86097789     1.93700
Cr350      Cr  0.44974082  0.47062733  0.87412286     1.93200
Cr351      Cr  0.47378080  0.38403294  0.90118968     1.39100
O352        O  0.44561723  0.41354627  0.87838416    -1.23100
C353        C  0.02396308  0.23635127  0.83958959    -0.12200
C354        C  0.00779140  0.19805625  0.84606025     0.04800
C355        C  0.47554146  0.20007640  0.84439297    -0.07500
C356        C  0.46029945  0.24019874  0.84080453    -0.08300
C357        C  0.47663903  0.27907377  0.83915761    -0.02800
C358        C  0.00882485  0.27657884  0.83757922     0.04000
N359        N  0.02711426  0.31479266  0.83726387     0.66500
H360        H  0.04870398  0.23593120  0.83983631     0.15400
H361        H  0.43563135  0.24122952  0.84328268     0.15100
N362        N  0.45739631  0.16211367  0.84967285     0.74200
O363        O  0.04120050  0.32435628  0.86372620    -0.39300
O364        O  0.03696093  0.32923184  0.80938725    -0.39200
O365        O  0.44427788  0.15648174  0.87778976    -0.39900
O366        O  0.44756784  0.14223487  0.82442972    -0.40000
C367        C  0.42838830  0.54204355  0.73654883    -0.12200
C368        C  0.40569859  0.52729181  0.71544853     0.04800
C369        C  0.39036787  0.48813809  0.72456898    -0.07500
C370        C  0.39851421  0.46461949  0.75381656    -0.08300
C371        C  0.42217359  0.47854515  0.77453939    -0.02800
C372        C  0.43702694  0.51828664  0.76529968     0.04000
N373        N  0.95942937  0.53717124  0.78623568     0.66500
H374        H  0.44117324  0.57078055  0.72946678     0.15400
H375        H  0.38630468  0.43516389  0.76009828     0.15100
N376        N  0.36627232  0.47157771  0.70444613     0.74200
O377        O  0.98546895  0.53833499  0.77240284    -0.39300
O378        O  0.95304946  0.56476327  0.80848125    -0.39200
O379        O  0.37148874  0.43905783  0.68620471    -0.39900
O380        O  0.33897057  0.48106626  0.71203126    -0.40000
C381        C  0.06153021  0.01485170  0.71627661    -0.12200
C382        C  0.05984935  0.96870749  0.71545674     0.04800
C383        C  0.05792304  0.94668688  0.74664661    -0.07500
C384        C  0.05900684  0.97012673  0.77690638    -0.08300
C385        C  0.06218895  0.01598123  0.77765770    -0.02800
C386        C  0.06277762  0.03828252  0.74649443     0.04000
N387        N  0.56585547  0.08505736  0.74503528     0.66500
H388        H  0.56229915  0.03429788  0.69342532     0.15400
H389        H  0.05771944  0.95168895  0.80020203     0.15100
N390        N  0.05540734  0.90055304  0.74849984     0.74200
O391        O  0.59205427  0.10121436  0.74053737    -0.39300
O392        O  0.54253528  0.10790934  0.73843791    -0.39200
O393        O  0.07889525  0.87822122  0.75539210    -0.39900
O394        O  0.02933128  0.88400645  0.75296532    -0.40000
C395        C  0.99615819  0.70586985  0.64122027    -0.12200
C396        C  0.46418868  0.70823949  0.63830197     0.04800
C397        C  0.45016767  0.74951306  0.64111069    -0.07500
C398        C  0.46826648  0.78711927  0.64161714    -0.08300
C399        C  0.00045528  0.78489769  0.64022796    -0.02800
C400        C  0.01432996  0.74340808  0.64229004     0.04000
N401        N  0.04679981  0.73840694  0.64377117     0.66500
H402        H  0.00752241  0.67461084  0.64056793     0.15400
H403        H  0.45699317  0.81809184  0.64156000     0.15100
N404        N  0.41766163  0.75450826  0.64137944     0.74200
O405        O  0.05917734  0.73271974  0.67207669    -0.39300
O406        O  0.06148014  0.72836305  0.61749520    -0.39200
O407        O  0.40417894  0.76174137  0.66896720    -0.39900
O408        O  0.40413125  0.76348353  0.61421652    -0.40000
C409        C  0.34473699  0.51906135  0.89844552    -0.12200
C410        C  0.35038945  0.48284961  0.87847809     0.04800
C411        C  0.32654279  0.46652405  0.85856943    -0.07500
C412        C  0.29750515  0.48567643  0.85979740    -0.08300
C413        C  0.29117892  0.52090892  0.88087541    -0.02800
C414        C  0.31546783  0.53791772  0.90018884     0.04000
N415        N  0.31113397  0.57363121  0.92231426     0.66500
H416        H  0.36287801  0.53198342  0.91361282     0.15400
H417        H  0.27971010  0.47207064  0.84458133     0.15100
N418        N  0.33154160  0.43129030  0.83605257     0.74200
O419        O  0.30531684  0.56562205  0.95286943    -0.39300
O420        O  0.32328119  0.60947830  0.91463501    -0.39200
O421        O  0.32096283  0.39436595  0.84361059    -0.39900
O422        O  0.33855715  0.43961436  0.80580162    -0.40000
C423        C  0.08369465  0.49980950  0.84394815    -0.12200
C424        C  0.10346434  0.48546004  0.86945208     0.04800
C425        C  0.09561667  0.44747409  0.88798000    -0.07500
C426        C  0.06720916  0.42759303  0.88256887    -0.08300
C427        C  0.04643825  0.44514947  0.85920056    -0.02800
C428        C  0.05550542  0.48058274  0.83910188     0.04000
N429        N  0.03517348  0.50052070  0.81576240     0.66500
H430        H  0.08932545  0.52768568  0.82828569     0.15400
H431        H  0.06036343  0.40074747  0.89872559     0.15100
N432        N  0.11507577  0.42996364  0.91351557     0.74200
O433        O  0.02301462  0.53628914  0.82366769    -0.39300
O434        O  0.03766223  0.49082328  0.78510110    -0.39200
O435        O  0.10876754  0.43735276  0.94396425    -0.39900
O436        O  0.13241539  0.39837365  0.90646768    -0.40000
C437        C  0.42475098  0.95618990  0.86345747    -0.12200
C438        C  0.40041746  0.98126654  0.87614007     0.04800
C439        C  0.40630312  0.02364774  0.88749631    -0.07500
C440        C  0.43623396  0.03899953  0.88742930    -0.08300
C441        C  0.46075861  0.01315328  0.87620319    -0.02800
C442        C  0.45469036  0.97159966  0.86335496     0.04000
N443        N  0.47859954  0.94334288  0.85205117     0.66500
H444        H  0.42077219  0.92371281  0.85446725     0.15400
H445        H  0.44030212  0.07117948  0.89690346     0.15100
N446        N  0.38241494  0.05179269  0.89908803     0.74200
O447        O  0.49026554  0.91663780  0.87268159    -0.39300
O448        O  0.48172910  0.93682140  0.82091965    -0.39200
O449        O  0.38005306  0.05915353  0.93017217    -0.39900
O450        O  0.36991936  0.07767888  0.87842375    -0.40000
C451        C  0.19288076  0.97405844  0.91278256    -0.12200
C452        C  0.21080212  0.97548416  0.88325455     0.04800
C453        C  0.19846127  0.99320501  0.85355984    -0.07500
C454        C  0.16874134  0.01009835  0.85410352    -0.08300
C455        C  0.15075331  0.00861721  0.88372622    -0.02800
C456        C  0.16300670  0.98986208  0.91319753     0.04000
N457        N  0.14590980  0.98731745  0.94397506     0.66500
H458        H  0.20213140  0.96088205  0.93600127     0.15400
H459        H  0.15945153  0.02355480  0.83099441     0.15100
N460        N  0.21532360  0.99272448  0.82255103     0.74200
O461        O  0.13261352  0.95223797  0.95154966    -0.39300
O462        O  0.15150745  0.01391711  0.96698619    -0.39200
O463        O  0.21943912  0.95734578  0.80740507    -0.39900
O464        O  0.22985220  0.02603908  0.81306626    -0.40000
C465        C  0.27498513  0.74936519  0.84749884    -0.12200
C466        C  0.25826255  0.78733252  0.85422639     0.04800
C467        C  0.22582158  0.78415617  0.85622350    -0.07500
C468        C  0.21151538  0.74336688  0.85497591    -0.08300
C469        C  0.22870328  0.70497831  0.85223041    -0.02800
C470        C  0.26071393  0.70863754  0.84667064     0.04000
N471        N  0.27958252  0.67112021  0.84208512     0.66500
H472        H  0.29965583  0.75065965  0.84523001     0.15400
H473        H  0.18701369  0.74163619  0.85886869     0.15100
N474        N  0.20688411  0.82162998  0.86094278     0.74200
O475        O  0.29462896  0.65666122  0.86675752    -0.39300
O476        O  0.28811854  0.66136651  0.81271804    -0.39200
O477        O  0.19261454  0.83722273  0.83604804    -0.39900
O478        O  0.19776976  0.83069143  0.89025819    -0.40000
C479        C  0.27009767  0.50786447  0.63224288    -0.12200
C480        C  0.26530764  0.47107438  0.61264457     0.04800
C481        C  0.28988904  0.45542983  0.59246451    -0.07500
C482        C  0.31786738  0.47706359  0.59186709    -0.08300
C483        C  0.32243887  0.51430658  0.61090529    -0.02800
C484        C  0.29804954  0.52961988  0.63150080     0.04000
N485        N  0.30077716  0.56752769  0.65161516     0.66500
H486        H  0.25177624  0.52079993  0.64768674     0.15400
H487        H  0.33617442  0.46427071  0.57633355     0.15100
N488        N  0.28730701  0.41769054  0.57219737     0.74200
O489        O  0.29086781  0.60336765  0.64027306    -0.39300
O490        O  0.30501956  0.56312490  0.68284797    -0.39200
O491        O  0.28400828  0.42271997  0.54089730    -0.39900
O492        O  0.29864725  0.38248000  0.58297511    -0.40000
C493        C  0.05167764  0.46577756  0.63970879    -0.12200
C494        C  0.07409597  0.48116603  0.61688946     0.04800
C495        C  0.06616363  0.51523758  0.59448070    -0.07500
C496        C  0.03667247  0.53290548  0.59536764    -0.08300
C497        C  0.01392475  0.51684996  0.61754649    -0.02800
C498        C  0.02186968  0.48287216  0.64006249     0.04000
N499        N  0.99988449  0.46391167  0.66250361     0.66500
H500        H  0.05703421  0.43967419  0.65720360     0.15400
H501        H  0.03143893  0.55859376  0.57745433     0.15100
N502        N  0.08722451  0.53157640  0.56976588     0.74200
O503        O  0.98669222  0.42940276  0.65413111    -0.39300
O504        O  0.99970808  0.47469099  0.69303025    -0.39200
O505        O  0.08572742  0.51800984  0.53999231    -0.39900
O506        O  0.10132368  0.56633902  0.57536756    -0.40000
C507        C  0.19265577  0.46368627  0.73468471    -0.12200
C508        C  0.16383173  0.46573772  0.71966672     0.04800
C509        C  0.14248988  0.49711588  0.73150154    -0.07500
C510        C  0.14997380  0.52464160  0.75817512    -0.08300
C511        C  0.17875064  0.52239081  0.77337867    -0.02800
C512        C  0.20022069  0.49149290  0.76115531     0.04000
N513        N  0.23021514  0.48846367  0.77501106     0.66500
H514        H  0.20990385  0.44177609  0.72484869     0.15400
H515        H  0.13264916  0.54638601  0.76809485     0.15100
N516        N  0.11280172  0.50110804  0.71689973     0.74200
O517        O  0.23591112  0.45925907  0.79665956    -0.39300
O518        O  0.25213612  0.50647172  0.75952323    -0.39200
O519        O  0.09050053  0.48205465  0.73085846    -0.39900
O520        O  0.10766565  0.53134300  0.69592150    -0.40000
C521        C  0.39965821  0.97293393  0.60831462    -0.12200
C522        C  0.39597834  0.01778365  0.61194164     0.04800
C523        C  0.42169977  0.04335503  0.61961602    -0.07500
C524        C  0.45059919  0.02382766  0.62229667    -0.08300
C525        C  0.45427328  0.97910557  0.61764795    -0.02800
C526        C  0.42832444  0.95344017  0.61141115     0.04000
N527        N  0.43037856  0.90721172  0.60963764     0.66500
H528        H  0.38004935  0.95257789  0.60389404     0.15400
H529        H  0.47035719  0.04401406  0.62634285     0.15100
N530        N  0.41928350  0.08936834  0.62305742     0.74200
O531        O  0.42469958  0.88511572  0.63586835    -0.39300
O532        O  0.42871091  0.88927337  0.58134075    -0.39200
O533        O  0.42085101  0.10553038  0.65200500    -0.39900
O534        O  0.42386307  0.11340754  0.59758284    -0.40000
C535        C  0.16322218  0.96929821  0.63560036    -0.12200
C536        C  0.14528765  0.97156991  0.60634372     0.04800
C537        C  0.15805215  0.98900240  0.57656281    -0.07500
C538        C  0.18802360  0.00429653  0.57669589    -0.08300
C539        C  0.20582574  0.00295224  0.60614095    -0.02800
C540        C  0.19319560  0.98488792  0.63579010     0.04000
N541        N  0.20968813  0.98396383  0.66667590     0.66500
H542        H  0.15371075  0.95632179  0.65875312     0.15400
H543        H  0.19735043  0.01717788  0.55348602     0.15100
N544        N  0.14152666  0.99003485  0.54566570     0.74200
O545        O  0.20532965  0.01397833  0.68754070    -0.39300
O546        O  0.22178974  0.94877339  0.67653827    -0.39200
O547        O  0.12904079  0.02511014  0.53614174    -0.39900
O548        O  0.14634045  0.96056579  0.52444440    -0.40000
C549        C  0.31323540  0.01750057  0.77364374    -0.12200
C550        C  0.30965593  0.97159398  0.77532126     0.04800
C551        C  0.30234643  0.95046792  0.74527849    -0.07500
C552        C  0.30014782  0.97464630  0.71498476    -0.08300
C553        C  0.30526195  0.02018557  0.71324484    -0.02800
C554        C  0.31107868  0.04153218  0.74345251     0.04000
N555        N  0.31604799  0.08728771  0.74410759     0.66500
H556        H  0.31831925  0.03560253  0.79602754     0.15400
H557        H  0.29500819  0.95711070  0.69231784     0.15100
N558        N  0.29734414  0.90470502  0.74463685     0.74200
O559        O  0.29397555  0.11205010  0.75161909    -0.39300
O560        O  0.34302665  0.10118283  0.74650968    -0.39200
O561        O  0.27025085  0.89080270  0.74541541    -0.39900
O562        O  0.31849788  0.88013641  0.73416126    -0.40000
C563        C  0.25929582  0.23545873  0.64345396    -0.12200
C564        C  0.24361663  0.19756619  0.63496127     0.04800
C565        C  0.21119715  0.19987985  0.63305967    -0.07500
C566        C  0.19587312  0.24003415  0.63648040    -0.08300
C567        C  0.21206204  0.27862634  0.64140412    -0.02800
C568        C  0.24404546  0.27550566  0.64653006     0.04000
N569        N  0.26185706  0.31295820  0.65352845     0.66500
H570        H  0.28393178  0.23476683  0.64586500     0.15400
H571        H  0.17140622  0.24137666  0.63265829     0.15100
N572        N  0.19335329  0.16228873  0.62643394     0.74200
O573        O  0.26628892  0.32286260  0.68379572    -0.39300
O574        O  0.28018695  0.32679363  0.63128171    -0.39200
O575        O  0.17979510  0.14339685  0.65059669    -0.39900
O576        O  0.18463508  0.15557499  0.59676932    -0.40000
C577        C  0.46545664  0.54256836  0.48679673    -0.12200
C578        C  0.46103266  0.51528049  0.51503466     0.04800
C579        C  0.48190840  0.48058105  0.52078994    -0.07500
C580        C  0.50590770  0.47372665  0.49834045    -0.08300
C581        C  0.00745868  0.49840042  0.46827813    -0.02800
C582        C  0.48859581  0.53387272  0.46336238     0.04000
N583        N  0.98989023  0.56050344  0.43328914     0.66500
H584        H  0.45057376  0.57016490  0.48244321     0.15400
H585        H  0.01980473  0.44584881  0.50167217     0.15100
N586        N  0.47810733  0.44977755  0.54770061     0.74200
O587        O  0.47260829  0.55266395  0.40948927    -0.39300
O588        O  0.00322965  0.59667304  0.43439618    -0.39200
O589        O  0.46149367  0.41710197  0.54296011    -0.39900
O590        O  0.49804707  0.44768709  0.57040869    -0.40000
C591        C  0.06890843  0.34595333  0.50413885    -0.12200
C592        C  0.08532655  0.34175179  0.47356457     0.04800
C593        C  0.11697665  0.33268836  0.47563411    -0.07500
C594        C  0.13155830  0.33142134  0.50730651    -0.08300
C595        C  0.11543612  0.33945850  0.53767461    -0.02800
C596        C  0.08336569  0.34542798  0.53558979     0.04000
N597        N  0.06494516  0.35318417  0.56481413     0.66500
H598        H  0.04449722  0.35205000  0.50376700     0.15400
H599        H  0.15607731  0.32658404  0.50779042     0.15100
N600        N  0.13513136  0.32720741  0.44594984     0.74200
O601        O  0.05871026  0.39185773  0.57264874    -0.39300
O602        O  0.04824938  0.32300730  0.57617164    -0.39200
O603        O  0.14786953  0.35981145  0.43250919    -0.39900
O604        O  0.14404408  0.28959215  0.43808395    -0.40000
C605        C  0.47774183  0.28157443  0.34481181    -0.12200
C606        C  0.00951256  0.27770716  0.34819239     0.04800
C607        C  0.02314066  0.23625307  0.34626683    -0.07500
C608        C  0.00463549  0.19917358  0.34658812    -0.08300
C609        C  0.47235239  0.20295547  0.34832473    -0.02800
C610        C  0.45903864  0.24469876  0.34442866     0.04000
N611        N  0.42663324  0.25076140  0.34297773     0.66500
H612        H  0.46706860  0.31338348  0.34541030     0.15400
H613        H  0.01557513  0.16756580  0.34781318     0.15100
N614        N  0.05559296  0.23088577  0.34671887     0.74200
O615        O  0.41208704  0.26047194  0.36942227    -0.39300
O616        O  0.41435941  0.25770793  0.31476696    -0.39200
O617        O  0.06843907  0.22023585  0.37394131    -0.39900
O618        O  0.06959092  0.22474402  0.31926917    -0.40000
C619        C  0.48805982  0.95254220  0.50242725    -0.12200
C620        C  0.00939808  0.98179391  0.51471483     0.04800
C621        C  0.00506185  0.02653308  0.50868200    -0.07500
C622        C  0.97983145  0.04097424  0.49032031    -0.08300
C623        C  0.45832333  0.01184479  0.47838283    -0.02800
C624        C  0.46262626  0.96706787  0.48449038     0.04000
N625        N  0.44145439  0.93547135  0.47296002     0.66500
H626        H  0.48982389  0.91932315  0.50825596     0.15400
H627        H  0.97838257  0.07371587  0.48412081     0.15100
N628        N  0.02609761  0.05817078  0.52048867     0.74200
O629        O  0.44728575  0.91582706  0.44595234    -0.39300
O630        O  0.42308829  0.91852005  0.49389637    -0.39200
O631        O  0.04449193  0.07548203  0.49976599    -0.39900
O632        O  0.02023229  0.07732507  0.54770278    -0.40000
C633        C  0.34418738  0.15516378  0.46326364    -0.12200
C634        C  0.37622521  0.15494424  0.46203941     0.04800
C635        C  0.39177046  0.15729207  0.49338121    -0.07500
C636        C  0.37538423  0.15575738  0.52422231    -0.08300
C637        C  0.34331603  0.15356491  0.52541143    -0.02800
C638        C  0.32778076  0.15519613  0.49399497     0.04000
N639        N  0.29520096  0.15469733  0.49218837     0.66500
H640        H  0.33153143  0.15418258  0.44006079     0.15400
H641        H  0.38805877  0.15528165  0.54746212     0.15100
N642        N  0.42432865  0.15970549  0.49492189     0.74200
O643        O  0.28090840  0.19042506  0.49268372    -0.39300
O644        O  0.28258206  0.12242253  0.47906146    -0.39200
O645        O  0.43656334  0.19666209  0.49593021    -0.39900
O646        O  0.43901296  0.12730244  0.50609995    -0.40000
C647        C  0.08853981  0.64525172  0.99641805    -0.12200
C648        C  0.10480148  0.64366972  0.02708648     0.04800
C649        C  0.13717489  0.64250403  0.02456652    -0.07500
C650        C  0.15190138  0.64199623  0.99255429    -0.08300
C651        C  0.13539316  0.64046196  0.96209086    -0.02800
C652        C  0.10311122  0.64241232  0.96467022     0.04000
N653        N  0.08431983  0.63937930  0.93557476     0.66500
H654        H  0.06379673  0.64595724  0.99692306     0.15400
H655        H  0.17658065  0.63971880  0.99174193     0.15100
N656        N  0.15559177  0.63728793  0.05384796     0.74200
O657        O  0.07453492  0.60258204  0.92729643    -0.39300
O658        O  0.07068416  0.67300240  0.92487971    -0.39200
O659        O  0.16426672  0.59958209  0.06233717    -0.39900
O660        O  0.17000247  0.66955510  0.06463527    -0.40000
C661        C  0.51568839  0.54059898  0.99364765    -0.12200
C662        C  0.02814347  0.51132805  0.01722241     0.04800
C663        C  0.52440767  0.46629202  0.01300709    -0.07500
C664        C  0.50441409  0.45237210  0.98876624    -0.08300
C665        C  0.48935519  0.48211487  0.96727863    -0.02800
C666        C  0.49552899  0.52653196  0.96927006     0.04000
N667        N  0.48267835  0.55726737  0.94607195     0.66500
H668        H  0.01829668  0.57580538  0.99762421     0.15400
H669        H  0.50129436  0.41781504  0.98605101     0.15100
N670        N  0.53800169  0.43511724  0.03536359     0.74200
O671        O  0.45852120  0.57746348  0.95402750    -0.39300
O672        O  0.49873565  0.57093709  0.92166811    -0.39200
O673        O  0.52206158  0.41876882  0.05886376    -0.39900
O674        O  0.06028030  0.41598937  0.02840625    -0.40000
C675        C  0.08775677  0.47922092  0.22342097    -0.12200
C676        C  0.07290949  0.51987296  0.21998883     0.04800
C677        C  0.05426295  0.53441075  0.24648048    -0.07500
C678        C  0.04991321  0.50785951  0.27500854    -0.08300
C679        C  0.06377065  0.46631010  0.27813315    -0.02800
C680        C  0.08359291  0.45262866  0.25213961     0.04000
N681        N  0.09830012  0.41109629  0.25334440     0.66500
H682        H  0.10174272  0.46717829  0.20291627     0.15400
H683        H  0.03514250  0.51998498  0.29478827     0.15100
N684        N  0.03786028  0.57458709  0.24399176     0.74200
O685        O  0.08588603  0.37950290  0.23899048    -0.39300
O686        O  0.12644150  0.40898947  0.26005076    -0.39200
O687        O  0.50959911  0.57424938  0.23625097    -0.39900
O688        O  0.04892727  0.60798344  0.25720222    -0.40000
C689        C  0.39735334  0.98528159  0.27094529    -0.12200
C690        C  0.41293423  0.02502302  0.27505819     0.04800
C691        C  0.43231535  0.03876593  0.24858446    -0.07500
C692        C  0.43671875  0.01232200  0.22011552    -0.08300
C693        C  0.42176838  0.97186805  0.21636038    -0.02800
C694        C  0.40134566  0.95911235  0.24234456     0.04000
N695        N  0.38436266  0.91977711  0.24065247     0.66500
H696        H  0.38208942  0.97369294  0.29062092     0.15400
H697        H  0.45185232  0.02426844  0.20048676     0.15100
N698        N  0.44815587  0.07905575  0.25008537     0.74200
O699        O  0.39584372  0.88539066  0.25286282    -0.39300
O700        O  0.35572675  0.92227002  0.23744514    -0.39200
O701        O  0.47658913  0.07872737  0.25532486    -0.39900
O702        O  0.43597117  0.11248743  0.23711706    -0.40000
C703        C  0.46664548  0.74711910  0.14812679    -0.12200
C704        C  0.48041684  0.78758134  0.14349549     0.04800
C705        C  0.01290135  0.79027350  0.14331198    -0.07500
C706        C  0.03074227  0.75219693  0.14529957    -0.08300
C707        C  0.01694009  0.71138615  0.14722032    -0.02800
C708        C  0.48434263  0.70894539  0.14919336     0.04000
N709        N  0.46889870  0.66828330  0.14944249     0.66500
H710        H  0.44195659  0.74468577  0.14764726     0.15400
H711        H  0.05532190  0.75439301  0.14221618     0.15100
N712        N  0.02815920  0.83083154  0.13891667     0.74200
O713        O  0.46131827  0.65128533  0.17731424    -0.39300
O714        O  0.45545663  0.65664824  0.12311751    -0.39200
O715        O  0.03725289  0.85039517  0.16465043    -0.39900
O716        O  0.04036843  0.83961407  0.11078494    -0.40000
C717        C  0.97754696  0.03601713  0.02530059    -0.12200
C718        C  0.45708374  0.00344034  0.01740793     0.04800
C719        C  0.46015319  0.98301835  0.98610789    -0.07500
C720        C  0.48620006  0.99031564  0.96655646    -0.08300
C721        C  0.00917032  0.01811965  0.97676873    -0.02800
C722        C  0.00399221  0.04280079  0.00598555     0.04000
N723        N  0.02670863  0.07120046  0.01858334     0.66500
H724        H  0.97576830  0.05136274  0.04960791     0.15400
H725        H  0.48866797  0.97266632  0.94333264     0.15100
N726        N  0.43936650  0.95003471  0.97618353     0.74200
O727        O  0.02226472  0.11164701  0.01640301    -0.39300
O728        O  0.04537583  0.05654796  0.04003113    -0.39200
O729        O  0.41934807  0.95921203  0.95449052    -0.39900
O730        O  0.44648944  0.91075799  0.98129165    -0.40000
C731        C  0.40301522  0.83231972  0.99540754    -0.12200
C732        C  0.38700560  0.84094241  0.02574004     0.04800
C733        C  0.35488671  0.84608640  0.02353595    -0.07500
C734        C  0.34026738  0.84510138  0.99183090    -0.08300
C735        C  0.35676350  0.84027890  0.96124959    -0.02800
C736        C  0.38855723  0.83253443  0.96369034     0.04000
N737        N  0.40680172  0.82512320  0.93431734     0.66500
H738        H  0.42756723  0.82776113  0.99605979     0.15400
H739        H  0.31585791  0.85101956  0.99112852     0.15100
N740        N  0.33686467  0.85608854  0.05258599     0.74200
O741        O  0.42092422  0.85649804  0.92078811    -0.39300
O742        O  0.41495592  0.78679988  0.92755516    -0.39200
O743        O  0.32778750  0.89467465  0.05669957    -0.39900
O744        O  0.32315002  0.82569460  0.06789055    -0.40000
C745        C  0.39452455  0.35980906  0.02956551    -0.12200
C746        C  0.36529710  0.34169252  0.03028905     0.04800
C747        C  0.35434483  0.32468471  0.99941817    -0.07500
C748        C  0.37176765  0.32889995  0.96900233    -0.08300
C749        C  0.40065087  0.34908208  0.96820676    -0.02800
C750        C  0.41183814  0.36388562  0.99976045     0.04000
N751        N  0.44003414  0.38651195  0.00235962     0.66500
H752        H  0.40371974  0.37355073  0.05224228     0.15400
H753        H  0.36252424  0.31640042  0.94594874     0.15100
N754        N  0.32620494  0.30142616  0.99850724     0.74200
O755        O  0.43915697  0.42744591  0.00328958    -0.39300
O756        O  0.46275024  0.36670895  0.01475604    -0.39200
O757        O  0.30476752  0.31550941  0.98028921    -0.39900
O758        O  0.32601110  0.26209661  0.00779215    -0.40000
C759        C  0.23726503  0.46541410  0.97586362    -0.12200
C760        C  0.22797634  0.50896802  0.97722769     0.04800
C761        C  0.24544438  0.53881032  0.99538709    -0.07500
C762        C  0.27219059  0.52475080  0.01064213    -0.08300
C763        C  0.28123994  0.48095441  0.00963427    -0.02800
C764        C  0.26363935  0.45126179  0.99148683     0.04000
N765        N  0.27155115  0.40641241  0.98889905     0.66500
H766        H  0.22436014  0.44219858  0.96158466     0.15400
H767        H  0.28510952  0.54791683  0.02492361     0.15100
N768        N  0.23700105  0.58357520  0.99810795     0.74200
O769        O  0.25919355  0.37952387  0.00895571    -0.39300
O770        O  0.28186880  0.39316845  0.96109532    -0.39200
O771        O  0.22532675  0.59660796  0.02533990    -0.39900
O772        O  0.24866405  0.61098421  0.97799489    -0.40000
C773        C  0.43851424  0.54779443  0.11456873    -0.12200
C774        C  0.46286436  0.52447090  0.12895754     0.04800
C775        C  0.45759503  0.48156808  0.14063372    -0.07500
C776        C  0.42902514  0.46230993  0.13611662    -0.08300
C777        C  0.40512313  0.48473445  0.11997546    -0.02800
C778        C  0.40986752  0.52864476  0.11012913     0.04000
N779        N  0.38607884  0.55468117  0.09562306     0.66500
H780        H  0.44205872  0.58009561  0.10485953     0.15400
H781        H  0.42585403  0.42920869  0.14467689     0.15100
N782        N  0.48114881  0.45651400  0.15654397     0.74200
O783        O  0.37067118  0.57943601  0.11444105    -0.39300
O784        O  0.38664207  0.56228358  0.06434415    -0.39200
O785        O  0.48130491  0.45341575  0.18823338    -0.39900
O786        O  0.49593662  0.42903144  0.13949558    -0.40000
C787        C  0.16422457  0.49025116  0.08864012    -0.12200
C788        C  0.15892989  0.52115925  0.11340707     0.04800
C789        C  0.18296823  0.53253759  0.13497534    -0.07500
C790        C  0.21162441  0.51253903  0.13138880    -0.08300
C791        C  0.21700877  0.48128664  0.10647384    -0.02800
C792        C  0.19267654  0.47036274  0.08490946     0.04000
N793        N  0.19574071  0.43886301  0.05914784     0.66500
H794        H  0.14600647  0.48119909  0.07186331     0.15400
H795        H  0.22968369  0.52167945  0.14830025     0.15100
N796        N  0.17850372  0.56285746  0.16149829     0.74200
O797        O  0.18659389  0.40095663  0.06551194    -0.39300
O798        O  0.19533990  0.45197702  0.02902433    -0.39200
O799        O  0.17445957  0.54877790  0.19115507    -0.39900
O800        O  0.18655089  0.60177825  0.15690625    -0.40000
C801        C  0.28543121  0.97714488  0.13617248    -0.12200
C802        C  0.28160693  0.01734562  0.11963610     0.04800
C803        C  0.30741919  0.03733875  0.10428681    -0.07500
C804        C  0.33590560  0.01690297  0.10573822    -0.08300
C805        C  0.33931677  0.97601298  0.12082913    -0.02800
C806        C  0.31382652  0.95600635  0.13636236     0.04000
N807        N  0.31628087  0.91473288  0.15295445     0.66500
H808        H  0.26607075  0.96105363  0.14783895     0.15400
H809        H  0.35531986  0.03244905  0.09369892     0.15100
N810        N  0.30542464  0.07764234  0.08615800     0.74200
O811        O  0.31746160  0.91350929  0.18463229    -0.39300
O812        O  0.30788396  0.88126045  0.13765351    -0.39200
O813        O  0.32039577  0.10952360  0.09667477    -0.39900
O814        O  0.29857413  0.07685721  0.05539949    -0.40000
C815        C  0.08540373  0.97654175  0.08906350    -0.12200
C816        C  0.09294235  0.00166188  0.11689479     0.04800
C817        C  0.07202150  0.00464963  0.14408386    -0.07500
C818        C  0.04325657  0.98532305  0.14186983    -0.08300
C819        C  0.03539999  0.96148577  0.11347446    -0.02800
C820        C  0.05693589  0.95639095  0.08717952     0.04000
N821        N  0.04953550  0.93366257  0.05726083     0.66500
H822        H  0.10124665  0.97371055  0.06808189     0.15400
H823        H  0.02693108  0.98902480  0.16234052     0.15100
N824        N  0.08004762  0.02593755  0.17447516     0.74200
O825        O  0.03927388  0.95485787  0.03238958    -0.39300
O826        O  0.06119848  0.89663203  0.05251189    -0.39200
O827        O  0.07104243  0.06433228  0.17958352    -0.39900
O828        O  0.09896107  0.00825465  0.19428119    -0.40000
C829        C  0.27369850  0.25083022  0.14534591    -0.12200
C830        C  0.25914499  0.28880117  0.13350476     0.04800
C831        C  0.22719961  0.28638701  0.12710634    -0.07500
C832        C  0.21173219  0.24661248  0.12920446    -0.08300
C833        C  0.22697131  0.20808181  0.13761961    -0.02800
C834        C  0.25797071  0.21093325  0.14764934     0.04000
N835        N  0.27372445  0.17403272  0.16117534     0.66500
H836        H  0.29771644  0.25154726  0.15165098     0.15400
H837        H  0.18803143  0.24552186  0.12158759     0.15100
N838        N  0.21023810  0.32297082  0.11517513     0.74200
O839        O  0.29585119  0.15823353  0.14480634    -0.39300
O840        O  0.27220502  0.16693147  0.19248200    -0.39200
O841        O  0.20265034  0.32368950  0.08464122    -0.39900
O842        O  0.19499983  0.34515294  0.13598563    -0.40000
C843        C  0.15122404  0.13788563  0.99801826    -0.12200
C844        C  0.13422958  0.14369004  0.02802795     0.04800
C845        C  0.10257077  0.15275512  0.02453074    -0.07500
C846        C  0.08882705  0.15377679  0.99220719    -0.08300
C847        C  0.10550294  0.14513425  0.96228714    -0.02800
C848        C  0.13750167  0.13837073  0.96584573     0.04000
N849        N  0.15682421  0.13185324  0.93717246     0.66500
H850        H  0.17552334  0.13140599  0.99943780     0.15400
H851        H  0.06460215  0.16027719  0.99069948     0.15100
N852        N  0.08402206  0.16238783  0.05329827     0.74200
O853        O  0.17011833  0.16421731  0.92405412    -0.39300
O854        O  0.16721444  0.09430975  0.93150155    -0.39200
O855        O  0.07432836  0.20068488  0.05732402    -0.39900
O856        O  0.07202883  0.13180305  0.07008551    -0.40000
C857        C  0.25737368  0.94856286  0.99938169    -0.12200
C858        C  0.27402364  0.97953352  0.98080818     0.04800
C859        C  0.26538805  0.02374292  0.98240185    -0.07500
C860        C  0.23976358  0.03580394  0.00097347    -0.08300
C861        C  0.22291799  0.00489757  0.01925274    -0.02800
C862        C  0.23179069  0.96073125  0.01820891     0.04000
N863        N  0.21465027  0.92762027  0.03528102     0.66500
H864        H  0.26286775  0.91435179  0.99756479     0.15400
H865        H  0.23419539  0.07001363  0.00254056     0.15100
N866        N  0.28221748  0.05695728  0.96508014     0.74200
O867        O  0.19384502  0.90841602  0.01956885    -0.39300
O868        O  0.22555265  0.90997066  0.06143494    -0.39200
O869        O  0.27074330  0.07498860  0.93938238    -0.39900
O870        O  0.30361894  0.07565446  0.98017198    -0.40000
C871        C  0.32702320  0.65869488  0.48919702    -0.12200
C872        C  0.34314734  0.64409342  0.46024370     0.04800
C873        C  0.37488342  0.63532176  0.46421000    -0.07500
C874        C  0.38888706  0.63897964  0.49595388    -0.08300
C875        C  0.37230603  0.65040763  0.52510151    -0.02800
C876        C  0.34125469  0.66200796  0.52108667     0.04000
N877        N  0.32421901  0.67869307  0.54897407     0.66500
H878        H  0.30293402  0.66670943  0.48735580     0.15400
H879        H  0.41283806  0.63043201  0.49800049     0.15100
N880        N  0.39331696  0.62042110  0.43679784     0.74200
O881        O  0.33004184  0.71616588  0.55963253    -0.39300
O882        O  0.30769641  0.65354984  0.56650488    -0.39200
O883        O  0.41160151  0.64654234  0.42262677    -0.39900
O884        O  0.39765516  0.58012413  0.43352315    -0.40000
C885        C  0.24850039  0.46005505  0.47866449    -0.12200
C886        C  0.25689595  0.50390874  0.47884748     0.04800
C887        C  0.23986354  0.53344597  0.49842524    -0.07500
C888        C  0.21406995  0.51902405  0.51590458    -0.08300
C889        C  0.20564897  0.47497094  0.51579304    -0.02800
C890        C  0.22312069  0.44541913  0.49661613     0.04000
N891        N  0.21624733  0.40014815  0.49581981     0.66500
H892        H  0.26110521  0.43703002  0.46341285     0.15400
H893        H  0.20150433  0.54210943  0.53115891     0.15100
N894        N  0.24806350  0.57826002  0.50035758     0.74200
O895        O  0.20092747  0.38585626  0.47165059    -0.39300
O896        O  0.23180457  0.37390298  0.51345316    -0.39200
O897        O  0.23391624  0.60641988  0.48302677    -0.39900
O898        O  0.27137194  0.58906847  0.51672624    -0.40000
C899        C  0.43176479  0.47572956  0.34448604    -0.12200
C900        C  0.43985122  0.44779166  0.37097915     0.04800
C901        C  0.41943559  0.44184165  0.39830649    -0.07500
C902        C  0.39186908  0.46506755  0.39915686    -0.08300
C903        C  0.38429903  0.49463855  0.37334124    -0.02800
C904        C  0.40423868  0.49891670  0.34522892     0.04000
N905        N  0.39718707  0.52666619  0.31720793     0.66500
H906        H  0.44755560  0.48101240  0.32374416     0.15400
H907        H  0.37688844  0.46103708  0.42075857     0.15100
N908        N  0.42743210  0.41554770  0.42683358     0.74200
O909        O  0.40877974  0.56406832  0.31557923    -0.39300
O910        O  0.38650515  0.51022986  0.29089376    -0.39200
O911        O  0.43684159  0.43375213  0.45303789    -0.39900
O912        O  0.41707568  0.37746240  0.42911487    -0.40000
C913        C  0.17111263  0.53702580  0.38601709    -0.12200
C914        C  0.19587562  0.50927967  0.37863198     0.04800
C915        C  0.19012325  0.46541493  0.37143160    -0.07500
C916        C  0.16018462  0.45010774  0.37219271    -0.08300
C917        C  0.13540934  0.47763137  0.37977559    -0.02800
C918        C  0.14098275  0.52174908  0.38636475     0.04000
N919        N  0.11673890  0.55086081  0.39529843     0.66500
H920        H  0.17521580  0.57061206  0.39215327     0.15400
H921        H  0.15635170  0.41616098  0.36683074     0.15100
N922        N  0.21442139  0.43519441  0.36533262     0.74200
O923        O  0.11073007  0.55678357  0.42602220    -0.39300
O924        O  0.10741022  0.57829142  0.37379848    -0.39200
O925        O  0.22392081  0.41163377  0.38932754    -0.39900
O926        O  0.22031236  0.42420888  0.33547959    -0.40000
C927        C  0.29510385  0.47216709  0.27192489    -0.12200
C928        C  0.30169056  0.51717758  0.27400838     0.04800
C929        C  0.31159143  0.53866487  0.24461139    -0.07500
C930        C  0.31570777  0.51515808  0.21485491    -0.08300
C931        C  0.31074857  0.46958069  0.21308969    -0.02800
C932        C  0.30003939  0.44833132  0.24236261     0.04000
N933        N  0.29533247  0.40249280  0.24335980     0.66500
H934        H  0.28725112  0.45447901  0.29401425     0.15400
H935        H  0.32374004  0.53323338  0.19305693     0.15100
N936        N  0.31944111  0.58361337  0.24467424     0.74200
O937        O  0.31693622  0.37807531  0.25300266    -0.39300
O938        O  0.26833738  0.38823417  0.24431696    -0.39200
O939        O  0.34725389  0.59400753  0.24646690    -0.39900
O940        O  0.30031556  0.61125047  0.23392895    -0.40000
C941        C  0.27070136  0.02513100  0.37208633    -0.12200
C942        C  0.26835509  0.97998662  0.37597181     0.04800
C943        C  0.29521991  0.95538219  0.38159198    -0.07500
C944        C  0.32330049  0.97569860  0.38431498    -0.08300
C945        C  0.32576181  0.02049464  0.38069291    -0.02800
C946        C  0.29917257  0.04555442  0.37422786     0.04000
N947        N  0.30026880  0.09178839  0.37171247     0.66500
H948        H  0.25033916  0.04479531  0.36869343     0.15400
H949        H  0.34357035  0.95579853  0.38780756     0.15100
N950        N  0.29535476  0.90932331  0.38109261     0.74200
O951        O  0.29995171  0.10961571  0.34295417    -0.39300
O952        O  0.29274179  0.11386239  0.39703505    -0.39200
O953        O  0.30848022  0.89177513  0.35630703    -0.39900
O954        O  0.29425030  0.88892245  0.40882576    -0.40000
C955        C  0.03492026  0.01241798  0.41183128    -0.12200
C956        C  0.01659326  0.00695323  0.38308025     0.04800
C957        C  0.02873444  0.98384600  0.35573024    -0.07500
C958        C  0.05879438  0.96813233  0.35710588    -0.08300
C959        C  0.07733580  0.97457210  0.38548350    -0.02800
C960        C  0.06492395  0.99662945  0.41326709     0.04000
N961        N  0.08191785  0.00242924  0.44344768     0.66500
H962        H  0.02598355  0.02903941  0.43360912     0.15400
H963        H  0.06777031  0.95134906  0.33539865     0.15100
N964        N  0.01142989  0.97702063  0.32596668     0.74200
O965        O  0.09410039  0.03872358  0.44873823    -0.39300
O966        O  0.07778076  0.97645812  0.46786726    -0.39200
O967        O  0.01611447  0.00109775  0.30053667    -0.39900
O968        O  0.99814998  0.94115384  0.32227854    -0.40000
C969        C  0.15074906  0.01393462  0.27575719    -0.12200
C970        C  0.16579063  0.97313134  0.27931977     0.04800
C971        C  0.18615369  0.96057172  0.25360549    -0.07500
C972        C  0.19048626  0.98788514  0.22531670    -0.08300
C973        C  0.17471678  0.02798869  0.22137084    -0.02800
C974        C  0.15518735  0.04128213  0.24757008     0.04000
N975        N  0.13893823  0.08164953  0.24582601     0.66500
H976        H  0.13527380  0.02510066  0.29524311     0.15400
H977        H  0.20551476  0.97668966  0.20541270     0.15100
N978        N  0.20276598  0.92054856  0.25557403     0.74200
O979        O  0.11092026  0.08162913  0.23848028    -0.39300
O980        O  0.14969485  0.11400063  0.26076990    -0.39200
O981        O  0.19348233  0.88856828  0.23904146    -0.39900
O982        O  0.23010168  0.92082601  0.26552899    -0.40000
C983        C  0.20027511  0.74467007  0.35155086    -0.12200
C984        C  0.21827745  0.78227552  0.35181317     0.04800
C985        C  0.25025625  0.77707491  0.34757508    -0.07500
C986        C  0.26364273  0.73567476  0.34664656    -0.08300
C987        C  0.24613703  0.69834142  0.35113565    -0.02800
C988        C  0.21378169  0.70303138  0.35161479     0.04000
N989        N  0.19414750  0.66619464  0.35364883     0.66500
H990        H  0.17566199  0.74729761  0.35406448     0.15400
H991        H  0.28834325  0.73316474  0.34557388     0.15100
N992        N  0.27033610  0.81300814  0.34770495     0.74200
O993        O  0.18253850  0.65577234  0.38176010    -0.39300
O994        O  0.18172212  0.65307496  0.32712843    -0.39200
O995        O  0.28912582  0.81472744  0.37155039    -0.39900
O996        O  0.27689897  0.83120808  0.31995957    -0.40000
C997        C  0.09559030  0.83751006  0.46606512    -0.12200
C998        C  0.12770158  0.83845228  0.46504135     0.04800
C999        C  0.14318665  0.83639755  0.49643611    -0.07500
C1000       C  0.12670828  0.83707963  0.52710905    -0.08300
C1001       C  0.09462206  0.83820837  0.52814522    -0.02800
C1002       C  0.07909919  0.83652878  0.49677193     0.04000
N1003       N  0.04648343  0.83555155  0.49507791     0.66500
H1004       H  0.08295883  0.83858733  0.44276909     0.15400
H1005       H  0.13934774  0.83777023  0.55037608     0.15100
N1006       N  0.17579557  0.83514813  0.49814585     0.74200
O1007       O  0.03240838  0.86932447  0.48548924    -0.39300
O1008       O  0.03349535  0.79928487  0.49248417    -0.39200
O1009       O  0.18966961  0.86789506  0.50892866    -0.39900
O1010       O  0.18907154  0.79864345  0.49914180    -0.40000
C1011       C  0.24540114  0.03762193  0.49849184    -0.12200
C1012       C  0.26791923  0.00833349  0.50964831     0.04800
C1013       C  0.26466298  0.96374074  0.50333444    -0.07500
C1014       C  0.23849799  0.94914919  0.48742863    -0.08300
C1015       C  0.21584734  0.97852197  0.47657370    -0.02800
C1016       C  0.21983480  0.02334312  0.48157628     0.04000
N1017       N  0.19818321  0.05497479  0.46984383     0.66500
H1018       H  0.24623830  0.07136838  0.50505653     0.15400
H1019       H  0.23690082  0.91501783  0.48179216     0.15100
N1020       N  0.28781171  0.93291093  0.51250237     0.74200
O1021       O  0.17836851  0.06942788  0.49014919    -0.39300
O1022       O  0.20436870  0.07675452  0.44355787    -0.39200
O1023       O  0.28354320  0.90858290  0.53787835    -0.39900
O1024       O  0.30743038  0.92194673  0.49067328    -0.40000
O1025       O  0.62949934  0.86317859  0.40707695    -0.85300
O1026       O  0.61504521  0.92918576  0.36356747    -0.82400
C1027       C  0.60900973  0.95861963  0.38455708     0.98100
O1028       O  0.63024870  0.97476917  0.40175284    -0.82400
O1029       O  0.68938856  0.98765163  0.42661563    -0.85100
C1030       C  0.69361160  0.96414535  0.45196604     1.02700
O1031       O  0.68622040  0.92496930  0.45147302    -0.77800
O1032       O  0.67266835  0.84449217  0.43049365    -0.78000
C1033       C  0.64395691  0.84858725  0.43253398     1.02600
O1034       O  0.67523997  0.83138352  0.35860028    -0.85300
O1035       O  0.66517442  0.90949056  0.31846382    -0.82400
C1036       C  0.66248197  0.95038866  0.31272184     0.98200
O1037       O  0.65640970  0.97512208  0.33674742    -0.82400
O1038       O  0.71487929  0.97626774  0.36382575    -0.85000
C1039       C  0.73765219  0.96105716  0.37987939     1.02600
O1040       O  0.73445005  0.93176806  0.40221645    -0.77800
O1041       O  0.71906649  0.85272609  0.37818134    -0.78000
C1042       C  0.70369292  0.82517594  0.36261516     1.02600
Cr1043     Cr  0.64838566  0.88484088  0.36323346     1.93700
Cr1044     Cr  0.67255205  0.97362920  0.38263296     1.93200
Cr1045     Cr  0.70109923  0.89038319  0.41343091     1.39100
O1046       O  0.67462240  0.91602940  0.38599389    -1.23100
O1047       O  0.83913427  0.61846270  0.40286455    -0.85300
O1048       O  0.85108038  0.55311746  0.35750669    -0.82400
C1049       C  0.85526229  0.51979484  0.37593758     0.98100
O1050       O  0.83405191  0.50609496  0.39491125    -0.82400
O1051       O  0.77683101  0.49779213  0.42494457    -0.85100
C1052       C  0.77583172  0.52033148  0.45099111     1.02700
O1053       O  0.78453884  0.55884658  0.44961083    -0.77800
O1054       O  0.79701714  0.63973402  0.42717778    -0.78000
C1055       C  0.82575654  0.63453269  0.42839469     1.02600
O1056       O  0.79119929  0.65331562  0.35657779    -0.85300
O1057       O  0.80179355  0.57858273  0.31495241    -0.82400
C1058       C  0.80237176  0.53796464  0.30849127     0.98200
O1059       O  0.80529740  0.51073749  0.33207619    -0.82400
O1060       O  0.74890507  0.51247437  0.36321478    -0.85000
C1061       C  0.72745017  0.52637856  0.38177951     1.02600
O1062       O  0.73264001  0.55307695  0.40504654    -0.77800
O1063       O  0.74794262  0.63055510  0.37828288    -0.78000
C1064       C  0.76247709  0.65825036  0.36138528     1.02600
Cr1065     Cr  0.81872893  0.59961028  0.35960689     1.93700
Cr1066     Cr  0.79162595  0.51135848  0.37919458     1.93200
Cr1067     Cr  0.76745611  0.59380285  0.41273208     1.39100
O1068       O  0.79207905  0.56850312  0.38314869    -1.23100
O1069       O  0.63681523  0.12332761  0.08791074    -0.85300
O1070       O  0.62561091  0.05878994  0.13459234    -0.82400
C1071       C  0.62267443  0.02489582  0.11713255     0.98100
O1072       O  0.64511837  0.00968072  0.10082291    -0.82400
O1073       O  0.70333936  0.00170151  0.07336939    -0.85100
C1074       C  0.70338447  0.02224389  0.04600487     1.02700
O1075       O  0.69394253  0.06083992  0.04511258    -0.77800
O1076       O  0.67908808  0.14325449  0.06325434    -0.78000
C1077       C  0.65048108  0.13775005  0.06180622     1.02600
O1078       O  0.68333586  0.16085272  0.13416808    -0.85300
O1079       O  0.67296564  0.08715205  0.17850296    -0.82400
C1080       C  0.67330361  0.04679978  0.18656077     0.98200
O1081       O  0.67154887  0.01870968  0.16410742    -0.82400
O1082       O  0.72913196  0.02267280  0.13479401    -0.85000
C1083       C  0.75048486  0.03552661  0.11541645     1.02600
O1084       O  0.74479286  0.06020694  0.09057434    -0.77800
O1085       O  0.72738561  0.13888336  0.11348577    -0.78000
C1086       C  0.71200488  0.16648333  0.12950926     1.02600
Cr1087     Cr  0.65690412  0.10616772  0.13231534     1.93700
Cr1088     Cr  0.68686340  0.01787739  0.11771109     1.93200
Cr1089     Cr  0.70931598  0.09915576  0.08046246     1.39100
O1090       O  0.68474926  0.07474772  0.11076647    -1.23100
O1091       O  0.85793588  0.36282085  0.08967129    -0.85300
O1092       O  0.86930617  0.42897869  0.13421764    -0.82400
C1093       C  0.87572181  0.46213812  0.11597747     0.98100
O1094       O  0.85606783  0.47733023  0.09592875    -0.82400
O1095       O  0.80105240  0.48827393  0.06331848    -0.85100
C1096       C  0.80114120  0.46575102  0.03730584     1.02700
O1097       O  0.80949275  0.42699437  0.03905818    -0.77800
O1098       O  0.81744202  0.34494497  0.06166425    -0.78000
C1099       C  0.84616368  0.34841850  0.06281817     1.02600
O1100       O  0.80621798  0.33204835  0.13304365    -0.85300
O1101       O  0.81506686  0.40787766  0.17431984    -0.82400
C1102       C  0.81660972  0.44855019  0.18037330     0.98200
O1103       O  0.82419196  0.47400035  0.15696149    -0.82400
O1104       O  0.76927901  0.47436357  0.12340651    -0.85000
C1105       C  0.74840239  0.46252159  0.10371035     1.02600
O1106       O  0.75441260  0.43663268  0.07995510    -0.77800
O1107       O  0.76581601  0.35715673  0.10690939    -0.78000
C1108       C  0.77803797  0.32850501  0.12520153     1.02600
Cr1109     Cr  0.83540744  0.38423961  0.13125587     1.93700
Cr1110     Cr  0.81275829  0.47390067  0.10946645     1.93200
Cr1111     Cr  0.78857823  0.39314473  0.07425684     1.39100
O1112       O  0.81183539  0.41673105  0.10543541    -1.23100
O1113       O  0.92858315  0.87628440  0.04862395    -0.85300
O1114       O  0.96638699  0.94378886  0.05066059    -0.82400
C1115       C  0.94889497  0.97565928  0.04562750     0.98100
O1116       O  0.92933936  0.98675280  0.06735469    -0.82400
O1117       O  0.89277975  0.97970159  0.12433207    -0.85100
C1118       C  0.86978351  0.95593437  0.11973463     1.02700
O1119       O  0.87271945  0.91600148  0.11453126    -0.77800
O1120       O  0.89915040  0.84507973  0.08683619    -0.78000
C1121       C  0.90533521  0.85419819  0.05579726     1.02600
O1122       O  0.96358859  0.83297110  0.09944919    -0.85300
O1123       O  0.49763335  0.90812934  0.10620723    -0.82400
C1124       C  0.50376891  0.94768198  0.11022810     0.98200
O1125       O  0.48292061  0.97639657  0.10903954    -0.82400
O1126       O  0.94588375  0.96240405  0.16314285    -0.85000
C1127       C  0.92608846  0.94762784  0.18327839     1.02600
O1128       O  0.90906227  0.91636359  0.17389693    -0.77800
O1129       O  0.94161408  0.84319082  0.14811123    -0.78000
C1130       C  0.96126774  0.82374902  0.13022772     1.02600
Cr1131     Cr  0.96170867  0.89167955  0.07874370     1.93700
Cr1132     Cr  0.93738271  0.97161763  0.11523339     1.93200
Cr1133     Cr  0.90827611  0.88177892  0.12935810     1.39100
O1134       O  0.93547320  0.91510738  0.10785037    -1.23100
O1135       O  0.56082471  0.61812410  0.05436659    -0.85300
O1136       O  0.51941100  0.55229274  0.06179439    -0.82400
C1137       C  0.53806748  0.52751658  0.04821905     0.98100
O1138       O  0.56156100  0.51593813  0.06368838    -0.82400
O1139       O  0.60588993  0.51389330  0.10982963    -0.85100
C1140       C  0.62772624  0.53822454  0.11702667     1.02700
O1141       O  0.62335634  0.57654184  0.12625888    -0.77800
O1142       O  0.59657587  0.64201908  0.08902011    -0.78000
C1143       C  0.58688705  0.63482770  0.05886181     1.02600
O1144       O  0.02998931  0.66180371  0.10574161    -0.85300
O1145       O  0.99877627  0.58303902  0.12297723    -0.82400
C1146       C  0.99428158  0.54226233  0.12604822     0.98200
O1147       O  0.01565529  0.51501840  0.11994626    -0.82400
O1148       O  0.56326748  0.51490289  0.16244753    -0.85000
C1149       C  0.57153113  0.53989093  0.18542019     1.02600
O1150       O  0.57951832  0.57915003  0.17947126    -0.77800
O1151       O  0.55360982  0.65275661  0.15166239    -0.78000
C1152       C  0.53423500  0.67290852  0.13425243     1.02600
Cr1153     Cr  0.53014576  0.60179998  0.08846798     1.93700
Cr1154     Cr  0.56134172  0.51969173  0.11357986     1.93200
Cr1155     Cr  0.58575710  0.61073159  0.13457067     1.39100
O1156       O  0.55950088  0.57725407  0.11311345    -1.23100
O1157       O  0.92142897  0.14885413  0.42634217    -0.85300
O1158       O  0.93087864  0.06690158  0.45015241    -0.82400
C1159       C  0.93770566  0.02732701  0.45188216     0.98100
O1160       O  0.93452458  0.00408470  0.42651936    -0.82400
O1161       O  0.87768281  0.02040591  0.39705623    -0.85100
C1162       C  0.85680378  0.03843099  0.37987036     1.02700
O1163       O  0.86310923  0.06830714  0.35906415    -0.77800
O1164       O  0.87839156  0.13161107  0.40333116    -0.78000
C1165       C  0.89279253  0.14570161  0.42861792     1.02600
O1166       O  0.96852389  0.13473824  0.37636762    -0.85300
O1167       O  0.48079698  0.05708381  0.40513379    -0.82400
C1168       C  0.48557134  0.02785797  0.38371039     0.98200
O1169       O  0.46408458  0.01476858  0.36512557    -0.82400
O1170       O  0.90693426  0.01884967  0.33322313    -0.85000
C1171       C  0.91161586  0.04509962  0.30916131     1.02600
O1172       O  0.91414867  0.08572066  0.31519649    -0.77800
O1173       O  0.92614501  0.16126640  0.35543513    -0.78000
C1174       C  0.95477764  0.16379021  0.35970310     1.02600
Cr1175     Cr  0.94848812  0.10000678  0.41209501     1.93700
Cr1176     Cr  0.92054839  0.01904021  0.38056963     1.93200
Cr1177     Cr  0.89760454  0.10995882  0.35980325     1.39100
O1178       O  0.92286114  0.07641831  0.38345992    -1.23100
O1179       O  0.54501913  0.37495925  0.44445139    -0.85300
O1180       O  0.50377197  0.43843086  0.43489893    -0.82400
C1181       C  0.51828718  0.47293792  0.43983416     0.98100
O1182       O  0.53902609  0.48550788  0.41994031    -0.82400
O1183       O  0.58204957  0.47944908  0.36860569    -0.85100
C1184       C  0.60494065  0.45843656  0.37958321     1.02700
O1185       O  0.60247345  0.41917401  0.38815852    -0.77800
O1186       O  0.57862170  0.34357011  0.41140759    -0.78000
C1187       C  0.56928256  0.35337217  0.44102845     1.02600
O1188       O  0.01857813  0.32604969  0.39184196    -0.85300
O1189       O  0.97974489  0.39616519  0.37898685    -0.82400
C1190       C  0.97172373  0.43507498  0.37367258     0.98200
O1191       O  0.99102863  0.46548428  0.37408162    -0.82400
O1192       O  0.53351052  0.45160310  0.32554507    -0.85000
C1193       C  0.55705354  0.44098432  0.30939933     1.02600
O1194       O  0.57583508  0.41382253  0.32254079    -0.77800
O1195       O  0.54566971  0.33685476  0.34553415    -0.78000
C1196       C  0.52598079  0.31527413  0.36198339     1.02600
Cr1197     Cr  0.51418459  0.38535131  0.41018935     1.93700
Cr1198     Cr  0.53703105  0.46621807  0.37281211     1.93200
Cr1199     Cr  0.57300445  0.37995840  0.36776143     1.39100
O1200       O  0.54149651  0.41052232  0.38352576    -1.23100
O1201       O  0.79859987  0.14500022  0.55976618    -0.85300
O1202       O  0.79437536  0.06240380  0.53756336    -0.82400
C1203       C  0.78790133  0.02296158  0.53575129     0.98100
O1204       O  0.78937443  0.99949115  0.56166133    -0.82400
O1205       O  0.84495990  0.01652504  0.59250578    -0.85100
C1206       C  0.86489361  0.03485502  0.61020818     1.02700
O1207       O  0.85751884  0.06560165  0.62945273    -0.77800
O1208       O  0.84154866  0.12917247  0.58395321    -0.78000
C1209       C  0.82731866  0.14307723  0.55814131     1.02600
O1210       O  0.74963284  0.12872413  0.60677795    -0.85300
O1211       O  0.74165666  0.04879340  0.58015137    -0.82400
C1212       C  0.73689170  0.02138851  0.60352676     0.98200
O1213       O  0.75834018  0.00938195  0.62291461    -0.82400
O1214       O  0.81456255  0.01454403  0.65495206    -0.85000
C1215       C  0.80809172  0.04009640  0.67837544     1.02600
O1216       O  0.80518387  0.08080345  0.67183620    -0.77800
O1217       O  0.79065327  0.15534902  0.62991865    -0.78000
C1218       C  0.76207249  0.15762662  0.62400482     1.02600
Cr1219     Cr  0.77295189  0.09448176  0.57331063     1.93700
Cr1220     Cr  0.80182205  0.01466032  0.60768441     1.93200
Cr1221     Cr  0.82177358  0.10615634  0.62728941     1.39100
O1222       O  0.79816065  0.07194142  0.60360874    -1.23100
O1223       O  0.66207488  0.34135962  0.56926661    -0.85300
O1224       O  0.67655296  0.42132795  0.54445271    -0.82400
C1225       C  0.68541354  0.45991667  0.54308513     0.98100
O1226       O  0.68419196  0.48261129  0.56904102    -0.82400
O1227       O  0.62673487  0.47584429  0.59976417    -0.85100
C1228       C  0.60528292  0.46095924  0.61797598     1.02700
O1229       O  0.61052729  0.42974983  0.63834234    -0.77800
O1230       O  0.62073243  0.36327248  0.59499980    -0.78000
C1231       C  0.63343079  0.34736897  0.56911629     1.02600
O1232       O  0.71189901  0.34892440  0.61660026    -0.85300
O1233       O  0.72813243  0.42574310  0.58839949    -0.82400
C1234       C  0.73403164  0.45288107  0.61101555     0.98200
O1235       O  0.71288274  0.46723249  0.63009155    -0.82400
O1236       O  0.65597172  0.47227765  0.66249206    -0.85000
C1237       C  0.66022694  0.44540450  0.68603314     1.02600
O1238       O  0.66157120  0.40475898  0.67986254    -0.77800
O1239       O  0.66883030  0.32726709  0.63927379    -0.78000
C1240       C  0.69712895  0.32084684  0.63295413     1.02600
Cr1241     Cr  0.69271547  0.38616179  0.58201679     1.93700
Cr1242     Cr  0.66959975  0.46991567  0.61503133     1.93200
Cr1243     Cr  0.64254890  0.38263152  0.63665900     1.39100
O1244       O  0.66866789  0.41269404  0.61159412    -1.23100
O1245       O  0.81132626  0.84333131  0.92759146    -0.85300
O1246       O  0.80040637  0.92506889  0.95103828    -0.82400
C1247       C  0.79221030  0.96419393  0.95209093     0.98100
O1248       O  0.79207891  0.98661239  0.92556706    -0.82400
O1249       O  0.84859796  0.97747904  0.89451532    -0.85100
C1250       C  0.86956647  0.96165325  0.87635278     1.02700
O1251       O  0.86418222  0.92991404  0.85725775    -0.77800
O1252       O  0.85322511  0.86323448  0.90223430    -0.78000
C1253       C  0.83993836  0.84792697  0.92836404     1.02600
O1254       O  0.76146800  0.85498722  0.88135714    -0.85300
O1255       O  0.74832325  0.93265882  0.90841543    -0.82400
C1256       C  0.74222114  0.95892202  0.88471867     0.98200
O1257       O  0.76290014  0.97224328  0.86472871    -0.82400
O1258       O  0.81924143  0.97442608  0.83242340    -0.85000
C1259       C  0.81368226  0.94885149  0.80896181     1.02600
O1260       O  0.81277362  0.90801453  0.81550202    -0.77800
O1261       O  0.80363511  0.83162699  0.85748494    -0.78000
C1262       C  0.77517484  0.82713486  0.86392631     1.02600
Cr1263     Cr  0.78229359  0.89076130  0.91481451     1.93700
Cr1264     Cr  0.80592986  0.97313157  0.87968063     1.93200
Cr1265     Cr  0.83154341  0.88452010  0.85961370     1.39100
O1266       O  0.80622112  0.91587924  0.88426536    -1.23100
O1267       O  0.68118080  0.64063234  0.92675294    -0.85300
O1268       O  0.69774453  0.56124689  0.95020644    -0.82400
C1269       C  0.70807863  0.52332878  0.95088522     0.98100
O1270       O  0.70893034  0.50118599  0.92457754    -0.82400
O1271       O  0.65359731  0.49739540  0.89226508    -0.85100
C1272       C  0.63152743  0.51148927  0.87499913     1.02700
O1273       O  0.63363112  0.54753729  0.85942188    -0.77800
O1274       O  0.64050230  0.61378073  0.90447162    -0.78000
C1275       C  0.65299349  0.63218795  0.92911389     1.02600
O1276       O  0.73084966  0.63504063  0.87795834    -0.85300
O1277       O  0.75112871  0.56054587  0.90745224    -0.82400
C1278       C  0.75908503  0.53559647  0.88392242     0.98200
O1279       O  0.73916295  0.52122034  0.86407304    -0.82400
O1280       O  0.68494378  0.51055679  0.83075349    -0.85000
C1281       C  0.68226804  0.53900983  0.80804662     1.02600
O1282       O  0.67927309  0.57914782  0.81543277    -0.77800
O1283       O  0.68632784  0.65449821  0.85759694    -0.78000
C1284       C  0.71477821  0.66186898  0.86182189     1.02600
Cr1285     Cr  0.71333040  0.59729297  0.91313149     1.93700
Cr1286     Cr  0.69604374  0.51231798  0.87845691     1.93200
Cr1287     Cr  0.66217316  0.59755459  0.86090879     1.39100
O1288       O  0.69070176  0.56906030  0.88360050    -1.23100
O1289       O  0.59269272  0.86120821  0.58713264    -0.85300
O1290       O  0.60772386  0.92610501  0.62990880    -0.82400
C1291       C  0.61356864  0.95583279  0.60856188     0.98100
O1292       O  0.59226224  0.97334690  0.59172840    -0.82400
O1293       O  0.53337455  0.98840440  0.56623386    -0.85100
C1294       C  0.53034386  0.96587635  0.54053286     1.02700
O1295       O  0.53792301  0.92658214  0.54147265    -0.77800
O1296       O  0.54965005  0.84460345  0.56350860    -0.78000
C1297       C  0.57833584  0.84757341  0.56168354     1.02600
O1298       O  0.54610367  0.82992405  0.63570712    -0.85300
O1299       O  0.55832376  0.90709151  0.67591076    -0.82400
C1300       C  0.56105420  0.94784474  0.68158949     0.98200
O1301       O  0.56600246  0.97323396  0.65711339    -0.82400
O1302       O  0.00788331  0.97480389  0.62949906    -0.85000
C1303       C  0.98538087  0.96060701  0.61301459     1.02600
O1304       O  0.98908733  0.93357109  0.58966071    -0.77800
O1305       O  0.00340245  0.85427225  0.61441612    -0.78000
C1306       C  0.51760555  0.82565292  0.63058920     1.02600
Cr1307     Cr  0.57401925  0.88269546  0.63080769     1.93700
Cr1308     Cr  0.55005305  0.97289496  0.61080039     1.93200
Cr1309     Cr  0.52199758  0.89178572  0.57955591     1.39100
O1310       O  0.54810169  0.91549896  0.60765245    -1.23100
O1311       O  0.87211727  0.63072065  0.58541468    -0.85300
O1312       O  0.85804746  0.56588318  0.63041022    -0.82400
C1313       C  0.85324198  0.53425079  0.61128888     0.98100
O1314       O  0.87503386  0.51832709  0.59397427    -0.82400
O1315       O  0.93509789  0.50614796  0.56713918    -0.85100
C1316       C  0.93872930  0.52946842  0.54132113     1.02700
O1317       O  0.92930998  0.56787252  0.54168078    -0.77800
O1318       O  0.91546714  0.64890155  0.56209575    -0.78000
C1319       C  0.88685170  0.64447955  0.55980333     1.02600
O1320       O  0.91813955  0.66407827  0.63324973    -0.85300
O1321       O  0.90642577  0.58682873  0.67448117    -0.82400
C1322       C  0.90365510  0.54624825  0.68148164     0.98200
O1323       O  0.90062946  0.51944971  0.65822184    -0.82400
O1324       O  0.45949027  0.51858828  0.63040533    -0.85000
C1325       C  0.48205699  0.53303970  0.61342844     1.02600
O1326       O  0.47790017  0.56065393  0.58996299    -0.77800
O1327       O  0.96168052  0.63966692  0.61362334    -0.78000
C1328       C  0.94686107  0.66841363  0.62897645     1.02600
Cr1329     Cr  0.89092920  0.61038027  0.62948535     1.93700
Cr1330     Cr  0.91727947  0.52051389  0.61189492     1.93200
Cr1331     Cr  0.94402200  0.60272587  0.57900485     1.39100
O1332       O  0.91788637  0.57807116  0.60740402    -1.23100
O1333       O  0.60190670  0.12405009  0.90361313    -0.85300
O1334       O  0.61433584  0.05737257  0.86142823    -0.82400
C1335       C  0.61980572  0.02781815  0.88301957     0.98100
O1336       O  0.59852023  0.01274121  0.90139743    -0.82400
O1337       O  0.53885615  0.00239741  0.92932427    -0.85100
C1338       C  0.53476172  0.02752101  0.95372428     1.02700
O1339       O  0.54570515  0.06468510  0.95179970    -0.77800
O1340       O  0.55966218  0.14394600  0.92852355    -0.78000
C1341       C  0.58846516  0.13872192  0.92961045     1.02600
O1342       O  0.55398160  0.15582324  0.85537763    -0.85300
O1343       O  0.56446302  0.07849814  0.81728292    -0.82400
C1344       C  0.56615196  0.03764094  0.81189300     0.98200
O1345       O  0.57183586  0.01226463  0.83630030    -0.82400
O1346       O  0.01443851  0.01285694  0.86486754    -0.85000
C1347       C  0.99203936  0.02832961  0.88118931     1.02600
O1348       O  0.99594593  0.05626506  0.90398749    -0.77800
O1349       O  0.01088858  0.13333336  0.87826300    -0.78000
C1350       C  0.52520792  0.16013272  0.85948719     1.02600
Cr1351     Cr  0.58161927  0.10271939  0.86098385     1.93700
Cr1352     Cr  0.55636045  0.01465717  0.88349725     1.93200
Cr1353     Cr  0.53001259  0.09833971  0.91367322     1.39100
O1354       O  0.55543843  0.07217935  0.88548966    -1.23100
O1355       O  0.90874024  0.34850941  0.90687316    -0.85300
O1356       O  0.88286895  0.42155364  0.88165029    -0.82400
C1357       C  0.88123118  0.46213702  0.87910950     0.98100
O1358       O  0.90499644  0.48505989  0.87536633    -0.82400
O1359       O  0.95173404  0.47964813  0.92356311    -0.85100
C1360       C  0.97500627  0.46460729  0.93824678     1.02700
O1361       O  0.98928267  0.43311069  0.92645255    -0.77800
O1362       O  0.94477422  0.37459885  0.93903324    -0.78000
C1363       C  0.91887966  0.35726135  0.93652433     1.02600
O1364       O  0.94319150  0.34236330  0.83827221    -0.88500
O1365       O  0.91313913  0.42119878  0.81818459    -0.82400
C1366       C  0.92863982  0.45404126  0.80765235     0.98200
O1367       O  0.94974579  0.46867141  0.82521777    -0.82400
O1368       O  0.49550023  0.46683727  0.86912469    -0.85000
C1369       C  0.51364211  0.43533878  0.86297377     1.02600
O1370       O  0.50484257  0.39630677  0.86598307    -0.77800
O1371       O  0.96647211  0.32611442  0.88444001    -0.78000
C1372       C  0.96155105  0.31818722  0.85428368     1.02600
Cr1373     Cr  0.91476697  0.38457336  0.86218495     1.93700
Cr1374     Cr  0.94995273  0.47051260  0.87409708     1.93200
Cr1375     Cr  0.97391569  0.38437263  0.90202497     1.39100
O1376       O  0.94573569  0.41355590  0.87909657    -1.23100
C1377       C  0.52418364  0.23667716  0.83884093    -0.12200
C1378       C  0.50806391  0.19839816  0.84554817     0.04800
C1379       C  0.97525475  0.19992554  0.84516045    -0.07500
C1380       C  0.96008913  0.24015131  0.84181281    -0.08300
C1381       C  0.97650678  0.27896732  0.84030169    -0.02800
C1382       C  0.50895879  0.27680641  0.83641351     0.04000
N1383       N  0.52715124  0.31511708  0.83550491     0.66500
H1384       H  0.54892477  0.23635821  0.83914152     0.15400
H1385       H  0.93542959  0.24127563  0.84437890     0.15100
N1386       N  0.95702862  0.16205944  0.85053265     0.74200
O1387       O  0.54157879  0.32510092  0.86164198    -0.39300
O1388       O  0.53659993  0.32921454  0.80736017    -0.39200
O1389       O  0.94416158  0.15638388  0.87878470    -0.39900
O1390       O  0.94685842  0.14240989  0.82534733    -0.40000
C1391       C  0.92682919  0.54291119  0.73815116    -0.12200
C1392       C  0.90536221  0.52694336  0.71606145     0.04800
C1393       C  0.89070521  0.48703778  0.72463287    -0.07500
C1394       C  0.89859626  0.46377230  0.75409901    -0.08300
C1395       C  0.92129869  0.47873286  0.77563569    -0.02800
C1396       C  0.93512363  0.51954485  0.76723907     0.04000
N1397       N  0.46291420  0.53396328  0.78272474     0.66500
H1398       H  0.93888793  0.57251535  0.73174488     0.15400
H1399       H  0.88706340  0.43358843  0.75982880     0.15100
N1400       N  0.86758652  0.46939559  0.70370360     0.74200
O1401       O  0.48830677  0.53226678  0.76752069    -0.39300
O1402       O  0.45881685  0.56283827  0.80459533    -0.39200
O1403       O  0.87408604  0.43725243  0.68553094    -0.39900
O1404       O  0.83988822  0.47748764  0.71044632    -0.40000
C1405       C  0.56153718  0.01554575  0.71660318    -0.12200
C1406       C  0.55997867  0.96940146  0.71571770     0.04800
C1407       C  0.55846708  0.94725913  0.74688535    -0.07500
C1408       C  0.55961862  0.97061534  0.77717963    -0.08300
C1409       C  0.56254759  0.01650202  0.77799257    -0.02800
C1410       C  0.56293803  0.03888724  0.74685866     0.04000
N1411       N  0.06568280  0.08445218  0.74460260     0.66500
H1412       H  0.06249679  0.03354369  0.69307840     0.15400
H1413       H  0.55860298  0.95208220  0.80044563     0.15100
N1414       N  0.55642736  0.90106886  0.74867135     0.74200
O1415       O  0.09188978  0.10061273  0.74018151    -0.39300
O1416       O  0.04238453  0.10723932  0.73777773    -0.39200
O1417       O  0.58024260  0.87917575  0.75502207    -0.39900
O1418       O  0.53059066  0.88396921  0.75357232    -0.40000
C1419       C  0.49640407  0.70602135  0.64039236    -0.12200
C1420       C  0.96395290  0.70828167  0.63906230     0.04800
C1421       C  0.95005091  0.74964246  0.64171117    -0.07500
C1422       C  0.96826646  0.78714187  0.64194205    -0.08300
C1423       C  0.50046547  0.78510790  0.63999847    -0.02800
C1424       C  0.51446258  0.74366601  0.64170049     0.04000
N1425       N  0.54695241  0.73884071  0.64300977     0.66500
H1426       H  0.50786895  0.67484056  0.63954064     0.15400
H1427       H  0.95711556  0.81815074  0.64174209     0.15100
N1428       N  0.91755818  0.75481690  0.64210402     0.74200
O1429       O  0.55943095  0.73256861  0.67119357    -0.39300
O1430       O  0.56159383  0.72953895  0.61653888    -0.39200
O1431       O  0.90420132  0.76226508  0.66972918    -0.39900
O1432       O  0.90395729  0.76377200  0.61498098    -0.40000
C1433       C  0.84495255  0.51900838  0.89869095    -0.12200
C1434       C  0.85065244  0.48257461  0.87900429     0.04800
C1435       C  0.82681531  0.46568645  0.85938749    -0.07500
C1436       C  0.79772964  0.48466375  0.86051553    -0.08300
C1437       C  0.79136022  0.52015200  0.88131329    -0.02800
C1438       C  0.81561281  0.53757827  0.90045678     0.04000
N1439       N  0.81112682  0.57328449  0.92256402     0.66500
H1440       H  0.86308945  0.53223750  0.91370358     0.15400
H1441       H  0.77992328  0.47067894  0.84551691     0.15100
N1442       N  0.83183980  0.42990066  0.83740006     0.74200
O1443       O  0.80522529  0.56527354  0.95310392    -0.39300
O1444       O  0.82310872  0.60924456  0.91488591    -0.39200
O1445       O  0.82157644  0.39303833  0.84568390    -0.39900
O1446       O  0.83859019  0.43746325  0.80696270    -0.40000
C1447       C  0.58358817  0.50043418  0.84457959    -0.12200
C1448       C  0.60336363  0.48570100  0.86993342     0.04800
C1449       C  0.59539667  0.44762595  0.88829167    -0.07500
C1450       C  0.56696008  0.42787528  0.88271719    -0.08300
C1451       C  0.54630027  0.44559428  0.85929942    -0.02800
C1452       C  0.55543789  0.48126480  0.83952887     0.04000
N1453       N  0.53558146  0.50066103  0.81548265     0.66500
H1454       H  0.58928373  0.52835391  0.82899495     0.15400
H1455       H  0.56005234  0.40088230  0.89868634     0.15100
N1456       N  0.61477065  0.42986274  0.91379700     0.74200
O1457       O  0.52222631  0.53565164  0.82319810    -0.39300
O1458       O  0.54004427  0.49214689  0.78485477    -0.39200
O1459       O  0.60834751  0.43695378  0.94426256    -0.39900
O1460       O  0.63210148  0.39830546  0.90663996    -0.40000
C1461       C  0.92473761  0.95545570  0.86326335    -0.12200
C1462       C  0.90042436  0.98066262  0.87583892     0.04800
C1463       C  0.90632295  0.02311634  0.88701223    -0.07500
C1464       C  0.93625827  0.03840828  0.88692967    -0.08300
C1465       C  0.96075914  0.01242980  0.87584788    -0.02800
C1466       C  0.95468204  0.97081962  0.86312015     0.04000
N1467       N  0.97858002  0.94248536  0.85189449     0.66500
H1468       H  0.92073762  0.92292674  0.85439347     0.15400
H1469       H  0.94035227  0.07064195  0.89627827     0.15100
N1470       N  0.88244272  0.05138618  0.89843704     0.74200
O1471       O  0.99042345  0.91612753  0.87266625    -0.39300
O1472       O  0.98154610  0.93552908  0.82080527    -0.39200
O1473       O  0.88003760  0.05897969  0.92948162    -0.39900
O1474       O  0.86998276  0.07712020  0.87763448    -0.40000
C1475       C  0.69305201  0.97450383  0.91275681    -0.12200
C1476       C  0.71087690  0.97598944  0.88314473     0.04800
C1477       C  0.69851641  0.99411391  0.85360921    -0.07500
C1478       C  0.66880164  0.01100344  0.85432245    -0.08300
C1479       C  0.65088170  0.00933964  0.88399793    -0.02800
C1480       C  0.66322856  0.99049976  0.91337303     0.04000
N1481       N  0.64631590  0.98819205  0.94427704     0.66500
H1482       H  0.70235540  0.96118261  0.93590314     0.15400
H1483       H  0.65947963  0.02466866  0.83130005     0.15100
N1484       N  0.71539803  0.99423936  0.82260947     0.74200
O1485       O  0.63349069  0.95294975  0.95240511    -0.39300
O1486       O  0.65165936  0.01549266  0.96686663    -0.39200
O1487       O  0.71953312  0.95917307  0.80704708    -0.39900
O1488       O  0.72996784  0.02771489  0.81357190    -0.40000
C1489       C  0.77521393  0.74899836  0.84750644    -0.12200
C1490       C  0.75835141  0.78680734  0.85440849     0.04800
C1491       C  0.72594004  0.78337103  0.85653209    -0.07500
C1492       C  0.71180319  0.74249963  0.85515967    -0.08300
C1493       C  0.72912881  0.70426901  0.85221152    -0.02800
C1494       C  0.76110454  0.70816599  0.84658143     0.04000
N1495       N  0.78007633  0.67081864  0.84167059     0.66500
H1496       H  0.79986830  0.75049875  0.84511329     0.15400
H1497       H  0.68732144  0.74056412  0.85913824     0.15100
N1498       N  0.70686150  0.82062680  0.86156055     0.74200
O1499       O  0.79547484  0.65641794  0.86609841    -0.39300
O1500       O  0.78834236  0.66127375  0.81216977    -0.39200
O1501       O  0.69235462  0.83624330  0.83684287    -0.39900
O1502       O  0.69784510  0.82931723  0.89098196    -0.40000
C1503       C  0.77038860  0.50672805  0.63327387    -0.12200
C1504       C  0.76541599  0.47084195  0.61275602     0.04800
C1505       C  0.78987110  0.45591883  0.59206666    -0.07500
C1506       C  0.81787006  0.47745546  0.59181739    -0.08300
C1507       C  0.82257773  0.51392150  0.61166945    -0.02800
C1508       C  0.79836153  0.52841822  0.63285980     0.04000
N1509       N  0.80127483  0.56544355  0.65389955     0.66500
H1510       H  0.75219260  0.51903684  0.64919680     0.15400
H1511       H  0.83604860  0.46529868  0.57580173     0.15100
N1512       N  0.78710762  0.41915484  0.57079668     0.74200
O1513       O  0.79135458  0.60175240  0.64352036    -0.39300
O1514       O  0.80568025  0.55973398  0.68499015    -0.39200
O1515       O  0.78341473  0.42565680  0.53970583    -0.39900
O1516       O  0.79876967  0.38358834  0.58036471    -0.40000
C1517       C  0.55146940  0.46442050  0.63943164    -0.12200
C1518       C  0.57416010  0.48087116  0.61739166     0.04800
C1519       C  0.56648732  0.51608637  0.59594511    -0.07500
C1520       C  0.53695427  0.53361268  0.59682890    -0.08300
C1521       C  0.51389392  0.51638139  0.61804641    -0.02800
C1522       C  0.52161832  0.48145246  0.63979042     0.04000
N1523       N  0.49935219  0.46136815  0.66127998     0.66500
H1524       H  0.55663183  0.43748107  0.65622132     0.15400
H1525       H  0.53195546  0.56020880  0.57964474     0.15100
N1526       N  0.58791033  0.53391035  0.57225407     0.74200
O1527       O  0.48643248  0.42719023  0.65171397    -0.39300
O1528       O  0.49867977  0.47071982  0.69209845    -0.39200
O1529       O  0.58706832  0.52190577  0.54202928    -0.39900
O1530       O  0.60167639  0.56848251  0.57928349    -0.40000
C1531       C  0.69298638  0.46270402  0.73483001    -0.12200
C1532       C  0.66420018  0.46499930  0.71971560     0.04800
C1533       C  0.64298708  0.49660967  0.73149272    -0.07500
C1534       C  0.65047976  0.52392465  0.75828699    -0.08300
C1535       C  0.67919989  0.52143074  0.77357775    -0.02800
C1536       C  0.70061810  0.49048334  0.76131794     0.04000
N1537       N  0.73072838  0.48770683  0.77489678     0.66500
H1538       H  0.71019725  0.44075140  0.72497124     0.15400
H1539       H  0.63322864  0.54583625  0.76814050     0.15100
N1540       N  0.61349144  0.50129960  0.71653904     0.74200
O1541       O  0.73679805  0.45832226  0.79627162    -0.39300
O1542       O  0.75240277  0.50622191  0.75934265    -0.39200
O1543       O  0.59078065  0.48317901  0.73043676    -0.39900
O1544       O  0.60900032  0.53144918  0.69530509    -0.40000
C1545       C  0.89986020  0.97222330  0.60790748    -0.12200
C1546       C  0.89616957  0.01705934  0.61151925     0.04800
C1547       C  0.92184383  0.04262903  0.61938170    -0.07500
C1548       C  0.95071479  0.02308784  0.62232658    -0.08300
C1549       C  0.95441381  0.97837864  0.61765485    -0.02800
C1550       C  0.92850225  0.95273173  0.61116812     0.04000
N1551       N  0.93057063  0.90652685  0.60914985     0.66500
H1552       H  0.88028062  0.95187911  0.60331360     0.15400
H1553       H  0.97045133  0.04327111  0.62649577     0.15100
N1554       N  0.91944024  0.08867202  0.62261335     0.74200
O1555       O  0.92435866  0.88419488  0.63511273    -0.39300
O1556       O  0.92930699  0.88890460  0.58070037    -0.39200
O1557       O  0.92106131  0.10506569  0.65147624    -0.39900
O1558       O  0.92401448  0.11250053  0.59701930    -0.40000
C1559       C  0.66306927  0.97043278  0.63562352    -0.12200
C1560       C  0.64522093  0.97184448  0.60629252     0.04800
C1561       C  0.65813893  0.98810142  0.57619129    -0.07500
C1562       C  0.68822491  0.00302731  0.57605998    -0.08300
C1563       C  0.70594567  0.00250066  0.60556446    -0.02800
C1564       C  0.69312419  0.98572330  0.63555481     0.04000
N1565       N  0.70947639  0.98603633  0.66652016     0.66500
H1566       H  0.65341736  0.95842365  0.65900400     0.15400
H1567       H  0.69769504  0.01500419  0.55266650     0.15100
N1568       N  0.64162827  0.98832380  0.54528267     0.74200
O1569       O  0.70540278  0.01723796  0.68638312    -0.39300
O1570       O  0.72120272  0.95114086  0.67751080    -0.39200
O1571       O  0.62944938  0.02326074  0.53499285    -0.39900
O1572       O  0.64606952  0.95793323  0.52476332    -0.40000
C1573       C  0.81198649  0.01667380  0.77329560    -0.12200
C1574       C  0.80965037  0.97059230  0.77494159     0.04800
C1575       C  0.80376201  0.94901711  0.74470528    -0.07500
C1576       C  0.80167606  0.97300797  0.71431109    -0.08300
C1577       C  0.80560047  0.01881755  0.71262281    -0.02800
C1578       C  0.81006449  0.04051241  0.74298024     0.04000
N1579       N  0.81388344  0.08649502  0.74370722     0.66500
H1580       H  0.81592698  0.03508660  0.79581789     0.15400
H1581       H  0.79758494  0.95510133  0.69155207     0.15100
N1582       N  0.80026671  0.90296180  0.74394319     0.74200
O1583       O  0.79108781  0.11017904  0.75068564    -0.39300
O1584       O  0.84044423  0.10171748  0.74667564    -0.39200
O1585       O  0.77366007  0.88731779  0.74371137    -0.39900
O1586       O  0.82250594  0.87975993  0.73432647    -0.40000
C1587       C  0.75987188  0.23501789  0.64165277    -0.12200
C1588       C  0.74395399  0.19695141  0.63426061     0.04800
C1589       C  0.71150986  0.19929962  0.63319344    -0.07500
C1590       C  0.69630517  0.23960500  0.63646880    -0.08300
C1591       C  0.71266042  0.27830600  0.64038481    -0.02800
C1592       C  0.74478127  0.27518520  0.64450817     0.04000
N1593       N  0.76293213  0.31275348  0.64997702     0.66500
H1594       H  0.78456879  0.23434652  0.64327371     0.15400
H1595       H  0.67174465  0.24090235  0.63341529     0.15100
N1596       N  0.69350578  0.16151812  0.62777176     0.74200
O1597       O  0.76835858  0.32373398  0.67980048    -0.39300
O1598       O  0.78068058  0.32546748  0.62677546    -0.39200
O1599       O  0.68090205  0.14296905  0.65270951    -0.39900
O1600       O  0.68372684  0.15422006  0.59861040    -0.40000
C1601       C  0.96500101  0.54324149  0.48680251    -0.12200
C1602       C  0.96065218  0.51597021  0.51506742     0.04800
C1603       C  0.98149874  0.48119943  0.52070955    -0.07500
C1604       C  0.00541779  0.47430751  0.49817118    -0.08300
C1605       C  0.50804111  0.49787387  0.46847944    -0.02800
C1606       C  0.98801348  0.53442871  0.46322321     0.04000
N1607       N  0.49055381  0.55996343  0.43344254     0.66500
H1608       H  0.95014462  0.57089721  0.48253901     0.15400
H1609       H  0.52030460  0.44528637  0.50187995     0.15100
N1610       N  0.97768430  0.45028070  0.54754244     0.74200
O1611       O  0.97178908  0.55331286  0.40945671    -0.39300
O1612       O  0.50378624  0.59620589  0.43463378    -0.39200
O1613       O  0.96103879  0.41766058  0.54271636    -0.39900
O1614       O  0.99760782  0.44806548  0.57026485    -0.40000
C1615       C  0.56926150  0.34542827  0.50371032    -0.12200
C1616       C  0.58573653  0.34152730  0.47314002     0.04800
C1617       C  0.61743293  0.33286617  0.47521360    -0.07500
C1618       C  0.63197194  0.33156885  0.50690535    -0.08300
C1619       C  0.61577620  0.33934298  0.53727800    -0.02800
C1620       C  0.58369253  0.34504290  0.53517293     0.04000
N1621       N  0.56524273  0.35280927  0.56437272     0.66500
H1622       H  0.54482101  0.35127880  0.50332404     0.15400
H1623       H  0.65651689  0.32700990  0.50740078     0.15100
N1624       N  0.63567675  0.32801858  0.44552149     0.74200
O1625       O  0.55898573  0.39148745  0.57217688    -0.39300
O1626       O  0.54856981  0.32262359  0.57575654    -0.39200
O1627       O  0.64775091  0.36108282  0.43200609    -0.39900
O1628       O  0.64525437  0.29073381  0.43763347    -0.40000
C1629       C  0.97758257  0.28125507  0.34537925    -0.12200
C1630       C  0.50964575  0.27781723  0.34784277     0.04800
C1631       C  0.52312177  0.23624036  0.34629619    -0.07500
C1632       C  0.50447522  0.19931420  0.34676395    -0.08300
C1633       C  0.97251080  0.20256657  0.34831128    -0.02800
C1634       C  0.95902381  0.24425387  0.34480354     0.04000
N1635       N  0.92658654  0.25009132  0.34359262     0.66500
H1636       H  0.96679023  0.31296817  0.34625486     0.15400
H1637       H  0.51530301  0.16764437  0.34826274     0.15100
N1638       N  0.55555068  0.23062444  0.34702065     0.74200
O1639       O  0.91212392  0.25932794  0.37019696    -0.39300
O1640       O  0.91412293  0.25718177  0.31550392    -0.39200
O1641       O  0.56818790  0.22012515  0.37439606    -0.39900
O1642       O  0.56969130  0.22411009  0.31971278    -0.40000
C1643       C  0.98795232  0.95217596  0.50257089    -0.12200
C1644       C  0.50956229  0.98207956  0.51455959     0.04800
C1645       C  0.50530797  0.02683898  0.50850543    -0.07500
C1646       C  0.47996479  0.04138895  0.49037312    -0.08300
C1647       C  0.95832119  0.01132347  0.47818953    -0.02800
C1648       C  0.96261675  0.96658486  0.48442151     0.04000
N1649       N  0.94157094  0.93490639  0.47276233     0.66500
H1650       H  0.98969897  0.91898573  0.50850602     0.15400
H1651       H  0.47850063  0.07426577  0.48420628     0.15100
N1652       N  0.52659786  0.05834417  0.51997935     0.74200
O1653       O  0.94781323  0.91481241  0.44606298    -0.39300
O1654       O  0.92282890  0.91835729  0.49348345    -0.39200
O1655       O  0.54482600  0.07546696  0.49898279    -0.39900
O1656       O  0.52113533  0.07758848  0.54724871    -0.40000
C1657       C  0.84459799  0.15487630  0.46293315    -0.12200
C1658       C  0.87663333  0.15468147  0.46176644     0.04800
C1659       C  0.89212641  0.15709166  0.49313578    -0.07500
C1660       C  0.87569132  0.15546661  0.52395213    -0.08300
C1661       C  0.84362255  0.15315099  0.52507842    -0.02800
C1662       C  0.82814236  0.15482820  0.49362673     0.04000
N1663       N  0.79557035  0.15422754  0.49172713     0.66500
H1664       H  0.83197202  0.15386471  0.43970602     0.15400
H1665       H  0.88832611  0.15500081  0.54721626     0.15100
N1666       N  0.92467360  0.15965395  0.49473429     0.74200
O1667       O  0.78122187  0.18990644  0.49233779    -0.39300
O1668       O  0.78305959  0.12204768  0.47833958    -0.39200
O1669       O  0.93680132  0.19665898  0.49606692    -0.39900
O1670       O  0.93941234  0.12721031  0.50574306    -0.40000
C1671       C  0.58914104  0.64707272  0.99615449    -0.12200
C1672       C  0.60529838  0.64391202  0.02683190     0.04800
C1673       C  0.63763131  0.64126282  0.02439716    -0.07500
C1674       C  0.65241434  0.64074415  0.99243674    -0.08300
C1675       C  0.63595347  0.64073228  0.96191684    -0.02800
C1676       C  0.60374074  0.64440245  0.96439646     0.04000
N1677       N  0.58502998  0.64369736  0.93512407     0.66500
H1678       H  0.56442453  0.64899755  0.99664708     0.15400
H1679       H  0.67702054  0.63721777  0.99166227     0.15100
N1680       N  0.65582830  0.63431639  0.05364874     0.74200
O1681       O  0.57381732  0.60803346  0.92616280    -0.39300
O1682       O  0.57288680  0.67866326  0.92484428    -0.39200
O1683       O  0.66377890  0.59602419  0.06133805    -0.39900
O1684       O  0.67082384  0.66559755  0.06516138    -0.40000
C1685       C  0.01466395  0.54130843  0.99470706    -0.12200
C1686       C  0.52933665  0.51078058  0.01616400     0.04800
C1687       C  0.02308915  0.46688795  0.01400169    -0.07500
C1688       C  0.00350057  0.45312154  0.98934896    -0.08300
C1689       C  0.98873887  0.48296566  0.96770640    -0.02800
C1690       C  0.99476294  0.52739617  0.97001859     0.04000
N1691       N  0.98204720  0.55829995  0.94685981     0.66500
H1692       H  0.51930973  0.57512012  0.99641854     0.15400
H1693       H  0.00039883  0.41857618  0.98651115     0.15100
N1694       N  0.03600567  0.43562105  0.03676853     0.74200
O1695       O  0.95795728  0.57864153  0.95484286    -0.39300
O1696       O  0.99823881  0.57208240  0.92260219    -0.39200
O1697       O  0.01956827  0.42005961  0.06017397    -0.39900
O1698       O  0.56252804  0.41642541  0.02659980    -0.40000
C1699       C  0.58696573  0.47876302  0.22276315    -0.12200
C1700       C  0.57236271  0.51960466  0.21941881     0.04800
C1701       C  0.55402574  0.53445255  0.24606089    -0.07500
C1702       C  0.54986271  0.50811331  0.27474448    -0.08300
C1703       C  0.56350702  0.46641070  0.27780937    -0.02800
C1704       C  0.58287915  0.45230334  0.25156046     0.04000
N1705       N  0.59705052  0.41039324  0.25252903     0.66500
H1706       H  0.60065934  0.46645218  0.20212064     0.15400
H1707       H  0.53536276  0.52048734  0.29466910     0.15100
N1708       N  0.53764452  0.57464413  0.24353627     0.74200
O1709       O  0.58391611  0.37909437  0.23856662    -0.39300
O1710       O  0.62528888  0.40753363  0.25858740    -0.39200
O1711       O  0.00981921  0.57418166  0.23668993    -0.39900
O1712       O  0.54875053  0.60808675  0.25663687    -0.40000
C1713       C  0.89703305  0.98528420  0.27051168    -0.12200
C1714       C  0.91301451  0.02462747  0.27485855     0.04800
C1715       C  0.93281924  0.03798963  0.24866215    -0.07500
C1716       C  0.93717682  0.01158183  0.22017681    -0.08300
C1717       C  0.92177887  0.97152984  0.21614928    -0.02800
C1718       C  0.90098907  0.95913290  0.24190044     0.04000
N1719       N  0.88352893  0.92025034  0.23993603     0.66500
H1720       H  0.88147632  0.97399963  0.29001547     0.15400
H1721       H  0.95264847  0.02323339  0.20076414     0.15100
N1722       N  0.94919203  0.07780696  0.25051693     0.74200
O1723       O  0.89472492  0.88537320  0.25161413    -0.39300
O1724       O  0.85488435  0.92350677  0.23719467    -0.39200
O1725       O  0.97747124  0.07667858  0.25661495    -0.39900
O1726       O  0.93779477  0.11153877  0.23714998    -0.40000
C1727       C  0.96690306  0.74737666  0.14908760    -0.12200
C1728       C  0.98052382  0.78779947  0.14363671     0.04800
C1729       C  0.51279796  0.78987752  0.14357100    -0.07500
C1730       C  0.53052827  0.75166683  0.14531663    -0.08300
C1731       C  0.51660441  0.71090086  0.14640772    -0.02800
C1732       C  0.98472313  0.70932560  0.15058260     0.04000
N1733       N  0.96942263  0.66856257  0.15212237     0.66500
H1734       H  0.94221583  0.74480623  0.14904877     0.15400
H1735       H  0.55514462  0.75379589  0.14262087     0.15100
N1736       N  0.52818258  0.83040859  0.13964932     0.74200
O1737       O  0.96257525  0.65249442  0.18054133    -0.39300
O1738       O  0.95542439  0.65584320  0.12646990    -0.39200
O1739       O  0.53740824  0.84936813  0.16559861    -0.39900
O1740       O  0.54032197  0.83972071  0.11158032    -0.40000
C1741       C  0.47724599  0.03672318  0.02551893    -0.12200
C1742       C  0.95717009  0.00302191  0.01711456     0.04800
C1743       C  0.96011401  0.98265921  0.98578271    -0.07500
C1744       C  0.98620283  0.98969488  0.96624444    -0.08300
C1745       C  0.50902725  0.01896660  0.97707249    -0.02800
C1746       C  0.50368945  0.04368262  0.00623693     0.04000
N1747       N  0.52632066  0.07213826  0.01892178     0.66500
H1748       H  0.47537253  0.05211824  0.04979993     0.15400
H1749       H  0.98855772  0.97209115  0.94298814     0.15100
N1750       N  0.93904987  0.95008406  0.97574741     0.74200
O1751       O  0.52168132  0.11256602  0.01706734    -0.39300
O1752       O  0.54509355  0.05738579  0.04021530    -0.39200
O1753       O  0.91909865  0.95971878  0.95409238    -0.39900
O1754       O  0.94576675  0.91065616  0.98082090    -0.40000
C1755       C  0.90256070  0.83121492  0.99553981    -0.12200
C1756       C  0.88663482  0.84034931  0.02582379     0.04800
C1757       C  0.85454975  0.84593811  0.02363998    -0.07500
C1758       C  0.83991167  0.84506685  0.99195122    -0.08300
C1759       C  0.85636056  0.83975554  0.96139578    -0.02800
C1760       C  0.88805953  0.83130336  0.96385433     0.04000
N1761       N  0.90613033  0.82283105  0.93453924     0.66500
H1762       H  0.92707962  0.82628649  0.99619851     0.15400
H1763       H  0.81555570  0.85143014  0.99123069     0.15100
N1764       N  0.83661204  0.85625774  0.05268658     0.74200
O1765       O  0.92103160  0.85339812  0.92091803    -0.39300
O1766       O  0.91334195  0.78408979  0.92794150    -0.39200
O1767       O  0.82784537  0.89498776  0.05677962    -0.39900
O1768       O  0.82264969  0.82610254  0.06800422    -0.40000
C1769       C  0.89504177  0.35909297  0.03080684    -0.12200
C1770       C  0.86569708  0.34135748  0.03141134     0.04800
C1771       C  0.85474034  0.32451036  0.00049736    -0.07500
C1772       C  0.87219272  0.32877268  0.97011083    -0.08300
C1773       C  0.90114425  0.34876846  0.96939550    -0.02800
C1774       C  0.91242245  0.36312222  0.00103591     0.04000
N1775       N  0.94075982  0.38533626  0.00376877     0.66500
H1776       H  0.90428616  0.37258723  0.05355134     0.15400
H1777       H  0.86289648  0.31651002  0.94700526     0.15100
N1778       N  0.82657418  0.30132666  0.99952258     0.74200
O1779       O  0.94006534  0.42621734  0.00550362    -0.39300
O1780       O  0.96344826  0.36494493  0.01566203    -0.39200
O1781       O  0.80507898  0.31569715  0.98152105    -0.39900
O1782       O  0.82638307  0.26187532  0.00847964    -0.40000
C1783       C  0.73784515  0.46528572  0.97600379    -0.12200
C1784       C  0.72828817  0.50873878  0.97750902     0.04800
C1785       C  0.74545120  0.53859535  0.99600154    -0.07500
C1786       C  0.77214607  0.52467408  0.01145049    -0.08300
C1787       C  0.78145121  0.48098174  0.01029201    -0.02800
C1788       C  0.76417846  0.45128769  0.99179397     0.04000
N1789       N  0.77237630  0.40656385  0.98904341     0.66500
H1790       H  0.72517802  0.44201688  0.96152879     0.15400
H1791       H  0.78481586  0.54785591  0.02597743     0.15100
N1792       N  0.73673421  0.58322742  0.99893475     0.74200
O1793       O  0.75985899  0.37931750  0.00868015    -0.39300
O1794       O  0.78329264  0.39375215  0.96138301    -0.39200
O1795       O  0.72519068  0.59595683  0.02632082    -0.39900
O1796       O  0.74814958  0.61089103  0.97885891    -0.40000
C1797       C  0.93885970  0.54771845  0.11445655    -0.12200
C1798       C  0.96288594  0.52504381  0.13004921     0.04800
C1799       C  0.95745663  0.48250930  0.14241806    -0.07500
C1800       C  0.92898525  0.46304075  0.13767088    -0.08300
C1801       C  0.90538970  0.48480617  0.12045782    -0.02800
C1802       C  0.91038069  0.52828038  0.10957845     0.04000
N1803       N  0.88708938  0.55346230  0.09331800     0.66500
H1804       H  0.94263058  0.57972800  0.10404453     0.15400
H1805       H  0.92566111  0.43025409  0.14692920     0.15100
N1806       N  0.98076792  0.45804361  0.15927574     0.74200
O1807       O  0.87115822  0.57935204  0.11064146    -0.39300
O1808       O  0.88856605  0.55909988  0.06183633    -0.39200
O1809       O  0.98030747  0.45578610  0.19100117    -0.39900
O1810       O  0.99598235  0.43021584  0.14302251    -0.40000
C1811       C  0.66451197  0.49021472  0.08898529    -0.12200
C1812       C  0.65897814  0.52076152  0.11394602     0.04800
C1813       C  0.68279329  0.53184256  0.13590047    -0.07500
C1814       C  0.71151415  0.51194746  0.13244859    -0.08300
C1815       C  0.71716532  0.48113705  0.10726201    -0.02800
C1816       C  0.69302563  0.47049774  0.08533853     0.04000
N1817       N  0.69642887  0.43973536  0.05908555     0.66500
H1818       H  0.64645703  0.48143710  0.07190593     0.15400
H1819       H  0.72941445  0.52083131  0.14964778     0.15100
N1820       N  0.67800963  0.56171480  0.16266786     0.74200
O1821       O  0.68813692  0.40131646  0.06497972    -0.39300
O1822       O  0.69552465  0.45354063  0.02915912    -0.39200
O1823       O  0.67357969  0.54715282  0.19212309    -0.39900
O1824       O  0.68606016  0.60071795  0.15858198    -0.40000
C1825       C  0.78555527  0.97794271  0.13604413    -0.12200
C1826       C  0.78178421  0.01790667  0.11916112     0.04800
C1827       C  0.80755886  0.03739123  0.10332254    -0.07500
C1828       C  0.83596600  0.01671765  0.10472414    -0.08300
C1829       C  0.83930064  0.97605827  0.12022330    -0.02800
C1830       C  0.81383294  0.95652623  0.13614575     0.04000
N1831       N  0.81618112  0.91545165  0.15304271     0.66500
H1832       H  0.76621984  0.96220467  0.14805453     0.15400
H1833       H  0.85537161  0.03188533  0.09236962     0.15100
N1834       N  0.80558527  0.07734278  0.08471710     0.74200
O1835       O  0.81677048  0.91460772  0.18474693    -0.39300
O1836       O  0.80805644  0.88178708  0.13781356    -0.39200
O1837       O  0.82056070  0.10943975  0.09484291    -0.39900
O1838       O  0.79871282  0.07594748  0.05398350    -0.40000
C1839       C  0.58561341  0.97657105  0.08945220    -0.12200
C1840       C  0.59314417  0.00197548  0.11712930     0.04800
C1841       C  0.57219079  0.00525195  0.14427570    -0.07500
C1842       C  0.54340666  0.98595311  0.14214049    -0.08300
C1843       C  0.53554433  0.96188376  0.11386688    -0.02800
C1844       C  0.55710997  0.95649357  0.08763624     0.04000
N1845       N  0.54966384  0.93366717  0.05777880     0.66500
H1846       H  0.60146715  0.97352295  0.06850055     0.15400
H1847       H  0.52706559  0.98987810  0.16257026     0.15100
N1848       N  0.58018764  0.02685219  0.17454150     0.74200
O1849       O  0.53921589  0.95475569  0.03294643    -0.39300
O1850       O  0.56138910  0.89667718  0.05301848    -0.39200
O1851       O  0.57116504  0.06529384  0.17941354    -0.39900
O1852       O  0.59910157  0.00938560  0.19445720    -0.40000
C1853       C  0.77406122  0.25079075  0.14594180    -0.12200
C1854       C  0.75943595  0.28895129  0.13459287     0.04800
C1855       C  0.72742278  0.28673010  0.12857445    -0.07500
C1856       C  0.71192305  0.24697596  0.13050307    -0.08300
C1857       C  0.72722189  0.20828298  0.13829503    -0.02800
C1858       C  0.75832362  0.21089619  0.14799370     0.04000
N1859       N  0.77425006  0.17365710  0.16068426     0.66500
H1860       H  0.79816026  0.25133235  0.15189942     0.15400
H1861       H  0.68814214  0.24606271  0.12316473     0.15100
N1862       N  0.71041136  0.32351510  0.11711178     0.74200
O1863       O  0.79548227  0.15742541  0.14318924    -0.39300
O1864       O  0.77394564  0.16644699  0.19201032    -0.39200
O1865       O  0.70249840  0.32459419  0.08668719    -0.39900
O1866       O  0.69540097  0.34547451  0.13825547    -0.40000
C1867       C  0.65135199  0.13965322  0.99821692    -0.12200
C1868       C  0.63429440  0.14464943  0.02828344     0.04800
C1869       C  0.60253307  0.15301392  0.02485381    -0.07500
C1870       C  0.58877906  0.15409097  0.99253511    -0.08300
C1871       C  0.60553592  0.14614446  0.96254991    -0.02800
C1872       C  0.63761207  0.14015880  0.96604620     0.04000
N1873       N  0.65699495  0.13449149  0.93730844     0.66500
H1874       H  0.67572579  0.13376490  0.99957849     0.15400
H1875       H  0.56448193  0.15997549  0.99108031     0.15100
N1876       N  0.58385012  0.16175097  0.05370273     0.74200
O1877       O  0.66982262  0.16736539  0.92438800    -0.39300
O1878       O  0.66787865  0.09729387  0.93136199    -0.39200
O1879       O  0.57305833  0.19947586  0.05766432    -0.39900
O1880       O  0.57294944  0.13060588  0.07078297    -0.40000
C1881       C  0.75747979  0.94934820  0.99934777    -0.12200
C1882       C  0.77383187  0.98016260  0.98030894     0.04800
C1883       C  0.76494084  0.02432591  0.98150359    -0.07500
C1884       C  0.73940255  0.03643871  0.00021904    -0.08300
C1885       C  0.72287778  0.00566711  0.01898740    -0.02800
C1886       C  0.73196628  0.96156089  0.01826013     0.04000
N1887       N  0.71513992  0.92852464  0.03580305     0.66500
H1888       H  0.76315713  0.91516440  0.99787279     0.15400
H1889       H  0.73365530  0.07061549  0.00148985     0.15100
N1890       N  0.78142363  0.05745229  0.96366752     0.74200
O1891       O  0.69435770  0.90878469  0.02045815    -0.39300
O1892       O  0.72631143  0.91146864  0.06204788    -0.39200
O1893       O  0.76962616  0.07486578  0.93789975    -0.39900
O1894       O  0.80277924  0.07676121  0.97837172    -0.40000
C1895       C  0.82648341  0.65820582  0.48985501    -0.12200
C1896       C  0.84285154  0.64450456  0.46079461     0.04800
C1897       C  0.87466813  0.63640689  0.46478656    -0.07500
C1898       C  0.88856146  0.63997355  0.49660724    -0.08300
C1899       C  0.87178893  0.65056282  0.52583232    -0.02800
C1900       C  0.84058010  0.66131514  0.52183960     0.04000
N1901       N  0.82317887  0.67675985  0.54989624     0.66500
H1902       H  0.80230118  0.66562008  0.48802193     0.15400
H1903       H  0.91261409  0.63199289  0.49863239     0.15100
N1904       N  0.89332523  0.62232578  0.43728971     0.74200
O1905       O  0.82843926  0.71405981  0.56123967    -0.39300
O1906       O  0.80691027  0.65069118  0.56688813    -0.39200
O1907       O  0.91147688  0.64897601  0.42351962    -0.39900
O1908       O  0.89792567  0.58216588  0.43350782    -0.40000
C1909       C  0.74795323  0.46098739  0.47828660    -0.12200
C1910       C  0.75632331  0.50483628  0.47858855     0.04800
C1911       C  0.73918020  0.53430920  0.49812790    -0.07500
C1912       C  0.71349585  0.51970727  0.51573050    -0.08300
C1913       C  0.70521488  0.47560203  0.51562507    -0.02800
C1914       C  0.72264259  0.44621149  0.49626133     0.04000
N1915       N  0.71586181  0.40092209  0.49536846     0.66500
H1916       H  0.76059427  0.43801978  0.46301715     0.15400
H1917       H  0.70090609  0.54268618  0.53106001     0.15100
N1918       N  0.74716365  0.57921256  0.49992688     0.74200
O1919       O  0.70068387  0.38665561  0.47108274    -0.39300
O1920       O  0.73148873  0.37469333  0.51294195    -0.39200
O1921       O  0.73310441  0.60709788  0.48224666    -0.39900
O1922       O  0.77018609  0.59038250  0.51662197    -0.40000
C1923       C  0.93094829  0.47422863  0.34399270    -0.12200
C1924       C  0.93948230  0.44757923  0.37110082     0.04800
C1925       C  0.91955690  0.44305106  0.39902178    -0.07500
C1926       C  0.89213039  0.46657923  0.39988958    -0.08300
C1927       C  0.88415992  0.49493119  0.37344102    -0.02800
C1928       C  0.90345337  0.49754226  0.34468970     0.04000
N1929       N  0.89563509  0.52343537  0.31587751     0.66500
H1930       H  0.94632765  0.47833486  0.32272892     0.15400
H1931       H  0.87756968  0.46374511  0.42194408     0.15100
N1932       N  0.92791935  0.41785461  0.42800066     0.74200
O1933       O  0.90732696  0.56058202  0.31226154    -0.39300
O1934       O  0.88410072  0.50529459  0.29071431    -0.39200
O1935       O  0.93741291  0.43710581  0.45370363    -0.39900
O1936       O  0.91767884  0.37980039  0.43123464    -0.40000
C1937       C  0.67124580  0.53737761  0.38559635    -0.12200
C1938       C  0.69609215  0.50976806  0.37829559     0.04800
C1939       C  0.69048677  0.46584679  0.37113023    -0.07500
C1940       C  0.66059604  0.45033753  0.37192657    -0.08300
C1941       C  0.63573229  0.47773523  0.37944647    -0.02800
C1942       C  0.64117253  0.52192191  0.38592751     0.04000
N1943       N  0.61683734  0.55097243  0.39467280     0.66500
H1944       H  0.67523589  0.57101617  0.39166339     0.15400
H1945       H  0.65686915  0.41635364  0.36660631     0.15100
N1946       N  0.71488182  0.43580254  0.36496052     0.74200
O1947       O  0.61087377  0.55729178  0.42535532    -0.39300
O1948       O  0.60740090  0.57806364  0.37297491    -0.39200
O1949       O  0.72450814  0.41227796  0.38891409    -0.39900
O1950       O  0.72077539  0.42491415  0.33508517    -0.40000
C1951       C  0.79377490  0.47387555  0.27197406    -0.12200
C1952       C  0.80152562  0.51846752  0.27417018     0.04800
C1953       C  0.81258888  0.53935252  0.24502898    -0.07500
C1954       C  0.81694318  0.51551515  0.21548797    -0.08300
C1955       C  0.81085745  0.47023807  0.21364415    -0.02800
C1956       C  0.79873228  0.44971421  0.24256962     0.04000
N1957       N  0.79232422  0.40430515  0.24332082     0.66500
H1958       H  0.78494546  0.45676479  0.29389220     0.15400
H1959       H  0.82599690  0.53307238  0.19392226     0.15100
N1960       N  0.82131168  0.58396530  0.24518328     0.74200
O1961       O  0.81278760  0.37827632  0.25345837    -0.39300
O1962       O  0.76481806  0.39210686  0.24356901    -0.39200
O1963       O  0.84929468  0.59327042  0.24733848    -0.39900
O1964       O  0.80284425  0.61231333  0.23414477    -0.40000
C1965       C  0.77069928  0.02551338  0.37165943    -0.12200
C1966       C  0.76821607  0.98044973  0.37603293     0.04800
C1967       C  0.79499183  0.95584849  0.38220346    -0.07500
C1968       C  0.82308772  0.97608354  0.38491442    -0.08300
C1969       C  0.82570660  0.02076039  0.38071802    -0.02800
C1970       C  0.79921295  0.04584357  0.37380329     0.04000
N1971       N  0.80042898  0.09203659  0.37086467     0.66500
H1972       H  0.75040750  0.04520836  0.36788435     0.15400
H1973       H  0.84327134  0.95614047  0.38884043     0.15100
N1974       N  0.79508705  0.90978019  0.38235099     0.74200
O1975       O  0.80066736  0.10939601  0.34193508    -0.39300
O1976       O  0.79247099  0.11454951  0.39580024    -0.39200
O1977       O  0.80909138  0.89167659  0.35838908    -0.39900
O1978       O  0.79314008  0.89006997  0.41032560    -0.40000
C1979       C  0.53528581  0.01471764  0.41175527    -0.12200
C1980       C  0.51664850  0.00833113  0.38337211     0.04800
C1981       C  0.52848311  0.98434462  0.35632960    -0.07500
C1982       C  0.55848141  0.96844175  0.35768437    -0.08300
C1983       C  0.57729907  0.97566961  0.38570670    -0.02800
C1984       C  0.56525966  0.99883452  0.41313916     0.04000
N1985       N  0.58263694  0.00580862  0.44289156     0.66500
H1986       H  0.52663154  0.03213150  0.43328646     0.15400
H1987       H  0.56718897  0.95090272  0.33621839     0.15100
N1988       N  0.51091800  0.97679448  0.32686893     0.74200
O1989       O  0.59509116  0.04219415  0.44700780    -0.39300
O1990       O  0.57866068  0.98098475  0.46804625    -0.39200
O1991       O  0.51535802  0.00027353  0.30105463    -0.39900
O1992       O  0.49751341  0.94089916  0.32388249    -0.40000
C1993       C  0.65033043  0.01401310  0.27564927    -0.12200
C1994       C  0.66526706  0.97313237  0.27924577     0.04800
C1995       C  0.68557899  0.96042553  0.25353406    -0.07500
C1996       C  0.69007977  0.98776649  0.22529575    -0.08300
C1997       C  0.67451375  0.02804039  0.22136940    -0.02800
C1998       C  0.65495001  0.04140534  0.24752139     0.04000
N1999       N  0.63897062  0.08199606  0.24587543     0.66500
H2000       H  0.63487532  0.02527541  0.29512268     0.15400
H2001       H  0.70511580  0.97648424  0.20542797     0.15100
N2002       N  0.70197240  0.92021935  0.25544909     0.74200
O2003       O  0.61091631  0.08237123  0.23868420    -0.39300
O2004       O  0.64999916  0.11414682  0.26083576    -0.39200
O2005       O  0.69254524  0.88841626  0.23881188    -0.39900
O2006       O  0.72929915  0.92016738  0.26544153    -0.40000
C2007       C  0.70040599  0.74548554  0.35170485    -0.12200
C2008       C  0.71834960  0.78312255  0.35243278     0.04800
C2009       C  0.75037034  0.77801555  0.34854059    -0.07500
C2010       C  0.76381804  0.73668402  0.34732164    -0.08300
C2011       C  0.74634219  0.69926698  0.35134511    -0.02800
C2012       C  0.71397319  0.70388049  0.35162545     0.04000
N2013       N  0.69437382  0.66699450  0.35344699     0.66500
H2014       H  0.67577296  0.74802498  0.35400609     0.15400
H2015       H  0.78853095  0.73425877  0.34650465     0.15100
N2016       N  0.77042431  0.81390404  0.34948504     0.74200
O2017       O  0.68297149  0.65609642  0.38155469    -0.39300
O2018       O  0.68174606  0.65433421  0.32690555    -0.39200
O2019       O  0.78853374  0.81539438  0.37397474    -0.39900
O2020       O  0.77781774  0.83213854  0.32200647    -0.40000
C2021       C  0.59565456  0.83698122  0.46671348    -0.12200
C2022       C  0.62772617  0.83941623  0.46565764     0.04800
C2023       C  0.64325580  0.83866241  0.49705264    -0.07500
C2024       C  0.62677795  0.83904392  0.52770320    -0.08300
C2025       C  0.59470079  0.83867174  0.52876053    -0.02800
C2026       C  0.57921151  0.83570389  0.49745634     0.04000
N2027       N  0.54665554  0.83282203  0.49589802     0.66500
H2028       H  0.58301864  0.83700526  0.44342156     0.15400
H2029       H  0.63940306  0.84077462  0.55093591     0.15100
N2030       N  0.67586827  0.83923415  0.49880084     0.74200
O2031       O  0.53149214  0.86597471  0.48706363    -0.39300
O2032       O  0.53471416  0.79587711  0.49297718    -0.39200
O2033       O  0.68875003  0.87256041  0.51000126    -0.39900
O2034       O  0.69012486  0.80347360  0.49967979    -0.40000
C2035       C  0.74560685  0.03789831  0.49818918    -0.12200
C2036       C  0.76803797  0.00826340  0.50904582     0.04800
C2037       C  0.76443488  0.96373823  0.50268145    -0.07500
C2038       C  0.73811450  0.94960253  0.48688219    -0.08300
C2039       C  0.71553861  0.97930522  0.47640827    -0.02800
C2040       C  0.71976028  0.02400982  0.48159971     0.04000
N2041       N  0.69791923  0.05585263  0.47066737     0.66500
H2042       H  0.74666574  0.07158696  0.50490839     0.15400
H2043       H  0.73628575  0.91553058  0.48111479     0.15100
N2044       N  0.78723760  0.93244984  0.51197858     0.74200
O2045       O  0.67834852  0.06971136  0.49150242    -0.39300
O2046       O  0.70374676  0.07834287  0.44464380    -0.39200
O2047       O  0.78276047  0.90860751  0.53758776    -0.39900
O2048       O  0.80653897  0.92056471  0.49010709    -0.40000
loop_ 
_geom_bond_atom_site_label_1 
_geom_bond_atom_site_label_2 
_geom_bond_distance 
_geom_bond_site_symmetry_2 
_ccdc_geom_bond_type 
O1          Cr19   2.027       .  S
O1            C9   1.273       .  A
O2          Cr19   1.990       .  S
O2            C3   1.264       .  A
C3            O4   1.266       .  A
C3          C959   1.480       .  S
O4          Cr20   1.996       .  S
O5          Cr20   1.956       .  S
O5            C6   1.247       .  A
C6            O7   1.252       .  A
C6         C1015   1.456       .  S
O7          Cr21   1.965       .  S
O8          Cr21   1.998       .  S
O8            C9   1.263       .  A
C9          C998   1.515       .  S
O10         Cr19   2.023       .  S
O10          C18   1.267       .  A
O11         Cr19   2.056       .  S
O11          C12   1.282       .  A
C12          O13   1.255       .  A
C12         C970   1.500       .  S
O13         Cr20   1.961       .  S
O14         Cr20   1.991       .  S
O14          C15   1.270       .  A
C15          O16   1.265       .  A
C15         C942   1.473       .  S
O16         Cr21   1.987       .  S
O17         Cr21   1.984       .  S
O17          C18   1.257       .  A
C18         C984   1.499       .  S
Cr19         O22   1.764       .  S
Cr20         O22   1.778       .  S
Cr21         O22   1.773       .  S
O23         Cr41   2.036       .  S
O23          C31   1.271       .  A
O24         Cr41   2.005       .  S
O24          C25   1.266       .  A
C25          O26   1.262       .  A
C25         C903   1.477       .  S
O26         Cr42   1.968       .  S
O27         Cr42   1.965       .  S
O27          C28   1.254       .  A
C28          O29   1.248       .  A
C28         C886   1.461       .  S
O29         Cr43   1.958       .  S
O30         Cr43   2.013       .  S
O30          C31   1.266       .  A
C31         C872   1.529       .  S
O32         Cr41   2.040       .  S
O32          C40   1.276       .  A
O33         Cr41   2.044       .  S
O33          C34   1.280       .  A
C34          O35   1.256       .  A
C34         C928   1.500       .  S
O35         Cr42   1.960       .  S
O36         Cr42   1.978       .  S
O36          C37   1.264       .  A
C37          O38   1.268       .  A
C37         C914   1.475       .  S
O38         Cr43   2.006       .  S
O39         Cr43   1.963       .  S
O39          C40   1.252       .  A
C40         C987   1.494       .  S
Cr41         O44   1.767       .  S
Cr42         O44   1.769       .  S
Cr43         O44   1.772       .  S
O45         Cr63   2.040       .  S
O45          C53   1.270       .  A
O46         Cr63   2.008       .  S
O46          C47   1.269       .  A
C47          O48   1.262       .  A
C47         C816   1.475       .  S
O48         Cr64   1.968       .  S
O49         Cr64   1.968       .  S
O49          C50   1.251       .  A
C50          O51   1.255       .  A
C50         C861   1.459       .  S
O51         Cr65   1.971       .  S
O52         Cr65   2.006       .  S
O52          C53   1.265       .  A
C53         C844   1.525       .  S
O54         Cr63   2.051       .  S
O54          C62   1.278       .  A
O55         Cr63   2.047       .  S
O55          C56   1.279       .  A
C56          O57   1.254       .  A
C56         C973   1.493       .  S
O57         Cr64   1.957       .  S
O58         Cr64   1.981       .  S
O58          C59   1.267       .  A
C59          O60   1.264       .  A
C59         C802   1.476       .  S
O60         Cr65   1.995       .  S
O61         Cr65   1.979       .  S
O61          C62   1.257       .  A
C62         C833   1.500       .  S
Cr63         O66   1.771       .  S
Cr64         O66   1.772       .  S
Cr65         O66   1.769       .  S
O67         Cr85   2.032       .  S
O67          C75   1.275       .  A
O68         Cr85   2.035       .  S
O68          C69   1.276       .  A
C69          O70   1.260       .  A
C69         C777   1.489       .  S
O70         Cr86   1.966       .  S
O71         Cr86   1.953       .  S
O71          C72   1.252       .  A
C72          O73   1.246       .  A
C72         C763   1.452       .  S
O73         Cr87   1.957       .  S
O74         Cr87   2.007       .  S
O74          C75   1.262       .  A
C75         C746   1.523       .  S
O76         Cr85   2.060       .  S
O76          C84   1.279       .  A
O77         Cr85   2.060       .  S
O77          C78   1.281       .  A
C78          O79   1.253       .  A
C78         C931   1.508       .  S
O79         Cr86   1.957       .  S
O80         Cr86   1.974       .  S
O80          C81   1.265       .  A
C81          O82   1.268       .  A
C81         C791   1.483       .  S
O82         Cr87   2.013       .  S
O83         Cr87   1.964       .  S
O83          C84   1.255       .  A
C84         C830   1.511       .  S
Cr85         O88   1.758       .  S
Cr86         O88   1.770       .  S
Cr87         O88   1.776       .  S
O89        Cr107   1.951       .  S
O89          C97   1.255       .  A
O90        Cr107   1.954       .  S
O90          C91   1.255       .  A
C91          O92   1.259       .  A
C91         C718   1.448   1_565  S
O92        Cr108   1.987       .  S
O93        Cr108   1.995       .  S
O93          C94   1.263       .  A
C94          O95   1.255       .  A
C94         C805   1.466       .  S
O95        Cr109   1.961       .  S
O96        Cr109   2.089       .  S
O96          C97   1.289       .  A
C97         C732   1.518       .  S
O98        Cr107   1.978       .  S
O98         C106   1.255       .  A
O99       Cr1131   1.974       .  S
O99         C100   1.261   1_655  A
C100        O101   1.266   1_455  A
C100        C819   1.467       .  S
O101      Cr1132   2.006       .  S
O102       Cr108   1.959       .  S
O102        C103   1.257       .  A
C103        O104   1.282       .  A
C103        C693   1.518       .  S
O104       Cr109   2.080       .  S
O105       Cr109   2.015       .  S
O105        C106   1.263       .  A
C106        C704   1.482       .  S
Cr107      O1123   1.974       .  S
Cr107       O110   1.778       .  S
Cr108      O1125   2.007       .  S
Cr108       O110   1.770       .  S
Cr109       O110   1.781       .  S
O111       Cr129   1.961       .  S
O111        C119   1.268       .  A
O112       Cr129   1.929       .  S
O112        C113   1.237       .  A
C113        O114   1.249       .  A
C113        C662   1.435       .  S
O114       Cr130   1.987       .  S
O115       Cr130   1.959       .  S
O115        C116   1.255       .  A
C116        O117   1.253       .  A
C116        C788   1.470       .  S
O117       Cr131   1.973       .  S
O118       Cr131   2.093       .  S
O118        C119   1.297       .  A
C119        C648   1.525       .  S
O120      Cr1153   1.955       .  S
O120       C1152   1.240       .  A
O121      Cr1153   1.985       .  S
O121        C122   1.276       .  A
C122        O123   1.275       .  A
C122        C774   1.482       .  S
O123      Cr1154   2.012       .  S
O124       Cr130   1.949       .  S
O124        C125   1.258       .  A
C125        O126   1.279       .  A
C125        C676   1.482       .  S
O126       Cr131   2.038       .  S
O127       Cr131   2.023       .  S
O127        C128   1.254       .  A
C128       O1144   1.239       .  A
C128        C707   1.480       .  S
Cr129      O1144   1.955       .  S
Cr129      O1145   1.984   1_455  S
Cr129       O132   1.778       .  S
Cr130      O1147   2.013       .  S
Cr130       O132   1.773       .  S
Cr131       O132   1.778       .  S
O133       Cr151   1.991       .  S
O133        C141   1.258       .  A
O134       Cr151   1.968       .  S
O134        C135   1.254       .  A
C135        O136   1.253       .  A
C135        C623   1.465       .  S
O136       Cr152   1.977       .  S
O137       Cr152   1.979       .  S
O137        C138   1.265       .  A
C138        O139   1.260       .  A
C138        C945   1.467       .  S
O139       Cr153   1.987       .  S
O140       Cr153   2.035       .  S
O140        C141   1.273       .  A
C141        C634   1.517       .  S
O142       Cr151   1.968       .  S
O142        C150   1.258       .  A
O143      Cr1175   1.975       .  S
O143        C144   1.262       .  A
C144        O145   1.271       .  A
C144        C956   1.482   1_655  S
O145      Cr1176   2.003       .  S
O146       Cr152   1.978       .  S
O146        C147   1.260       .  A
C147        O148   1.282       .  A
C147        C690   1.511       .  S
O148       Cr153   2.057       .  S
O149       Cr153   2.026       .  S
O149        C150   1.268       .  A
C150        C609   1.492       .  S
Cr151      O1167   1.974       .  S
Cr151       O154   1.770       .  S
Cr152      O1169   2.002       .  S
Cr152       O154   1.775       .  S
Cr153       O154   1.774       .  S
O155       Cr173   1.947       .  S
O155        C163   1.255       .  A
O156       Cr173   1.967       .  S
O156        C157   1.260       .  A
C157        O158   1.258       .  A
C157        C581   1.448       .  S
O158       Cr174   1.975       .  S
O159       Cr174   2.018       .  S
O159        C160   1.266       .  A
C160        O161   1.257       .  A
C160        C917   1.475       .  S
O161       Cr175   1.958       .  S
O162       Cr175   2.068       .  S
O162        C163   1.281       .  A
C163        C592   1.510       .  S
O164      Cr1197   1.990       .  S
O164       C1196   1.260       .  A
O165      Cr1197   1.975       .  S
O165        C166   1.262       .  A
C166        O167   1.265       .  A
C166        C900   1.462       .  S
O167      Cr1198   1.996       .  S
O168       Cr174   1.945       .  S
O168        C169   1.252       .  A
C169        O170   1.277       .  A
C169        C679   1.497       .  S
O170       Cr175   2.069       .  S
O171       Cr175   2.009       .  S
O171        C172   1.264       .  A
C172       O1188   1.261       .  A
C172        C606   1.480       .  S
Cr173      O1188   1.990       .  S
Cr173      O1189   1.975   1_455  S
Cr173       O176   1.765       .  S
Cr174      O1191   1.996   1_455  S
Cr174       O176   1.772       .  S
Cr175       O176   1.777       .  S
O177       Cr195   1.989       .  S
O177        C185   1.257       .  A
O178       Cr195   1.968       .  S
O178        C179   1.252       .  A
C179        O180   1.252       .  A
C179       C1012   1.456       .  S
O180       Cr196   1.976       .  S
O181       Cr196   1.975       .  S
O181        C182   1.265       .  A
C182        O183   1.263       .  A
C182        C522   1.471       .  S
O183       Cr197   1.996       .  S
O184       Cr197   2.040       .  S
O184        C185   1.272       .  A
C185        C637   1.519       .  S
O186       Cr195   1.978       .  S
O186        C194   1.258       .  A
O187       Cr195   1.982       .  S
O187        C188   1.264       .  A
C188        O189   1.268       .  A
C188        C539   1.477       .  S
O189       Cr196   1.997       .  S
O190       Cr196   1.964       .  S
O190        C191   1.256       .  A
C191        O192   1.282       .  A
C191        C553   1.505       .  S
O192       Cr197   2.053       .  S
O193       Cr197   2.033       .  S
O193        C194   1.274       .  A
C194        C564   1.502       .  S
Cr195       O198   1.770       .  S
Cr196       O198   1.775       .  S
Cr197       O198   1.766       .  S
O199       Cr217   2.003       .  S
O199        C207   1.265       .  A
O200       Cr217   1.966       .  S
O200        C201   1.252       .  A
C201        O202   1.254       .  A
C201        C889   1.466       .  S
O202       Cr218   1.965       .  S
O203       Cr218   1.981       .  S
O203        C204   1.264       .  A
C204        O205   1.269       .  A
C204        C494   1.487       .  S
O205       Cr219   2.008       .  S
O206       Cr219   2.015       .  S
O206        C207   1.267       .  A
C207        C595   1.512       .  S
O208       Cr217   1.968       .  S
O208        C216   1.254       .  A
O209       Cr217   1.997       .  S
O209        C210   1.264       .  A
C210        O211   1.271       .  A
C210        C480   1.485       .  S
O211       Cr218   1.990       .  S
O212       Cr218   1.976       .  S
O212        C213   1.255       .  A
C213        O214   1.279       .  A
C213        C508   1.486       .  S
O214       Cr219   2.039       .  S
O215       Cr219   2.049       .  S
O215        C216   1.274       .  A
C216        C567   1.497       .  S
Cr217       O220   1.774       .  S
Cr218       O220   1.770       .  S
Cr219       O220   1.768       .  S
O221       Cr239   1.992       .  S
O221        C229   1.260       .  A
O222       Cr239   1.970       .  S
O222        C223   1.255       .  A
C223        O224   1.253       .  A
C223        C858   1.461       .  S
O224       Cr240   1.965       .  S
O225       Cr240   1.967       .  S
O225        C226   1.261       .  A
C226        O227   1.270       .  A
C226        C438   1.475       .  S
O227       Cr241   2.006       .  S
O228       Cr241   2.046       .  S
O228        C229   1.272       .  A
C229        C735   1.519       .  S
O230       Cr239   1.969       .  S
O230        C238   1.255       .  A
O231       Cr239   1.977       .  S
O231        C232   1.263       .  A
C232        O233   1.265       .  A
C232        C452   1.465       .  S
O233       Cr240   1.977       .  S
O234       Cr240   1.960       .  S
O234        C235   1.254       .  A
C235        O236   1.281       .  A
C235        C550   1.511       .  S
O236       Cr241   2.062       .  S
O237       Cr241   2.047       .  S
O237        C238   1.276       .  A
C238        C466   1.502       .  S
Cr239       O242   1.769       .  S
Cr240       O242   1.769       .  S
Cr241       O242   1.763       .  S
O243       Cr261   2.008       .  S
O243        C251   1.263       .  A
O244       Cr261   1.953       .  S
O244        C245   1.249       .  A
C245        O246   1.256       .  A
C245        C760   1.448       .  S
O246       Cr262   1.947       .  S
O247       Cr262   1.985       .  S
O247        C248   1.260       .  A
C248        O249   1.268       .  A
C248        C424   1.486       .  S
O249       Cr263   1.992       .  S
O250       Cr263   2.032       .  S
O250        C251   1.267       .  A
C251        C651   1.522       .  S
O252       Cr261   1.959       .  S
O252        C260   1.254       .  A
O253       Cr261   2.012       .  S
O253        C254   1.263       .  A
C254        O255   1.266       .  A
C254        C413   1.490       .  S
O255       Cr262   1.985       .  S
O256       Cr262   1.961       .  S
O256        C257   1.255       .  A
C257        O258   1.279       .  A
C257        C511   1.486       .  S
O258       Cr263   2.035       .  S
O259       Cr263   2.057       .  S
O259        C260   1.279       .  A
C260        C469   1.497       .  S
Cr261       O264   1.780       .  S
Cr262       O264   1.775       .  S
Cr263       O264   1.767       .  S
O265       Cr283   2.031       .  S
O265        C273   1.273       .  A
O266       Cr283   1.995       .  S
O266        C267   1.266       .  A
C267        O268   1.265       .  A
C267        C536   1.473       .  S
O268       Cr284   1.988       .  S
O269       Cr284   1.972       .  S
O269        C270   1.250       .  A
C270        O271   1.252       .  A
C270        C620   1.461       .  S
O271       Cr285   1.967       .  S
O272       Cr285   1.990       .  S
O272        C273   1.259       .  A
C273       C1001   1.514       .  S
O274       Cr283   2.044       .  S
O274        C282   1.271       .  A
O275       Cr283   2.064       .  S
O275        C276   1.284       .  A
C276        O277   1.258       .  A
C276        C382   1.518       .  S
O277       Cr284   1.972       .  S
O278      Cr1308   1.989       .  S
O278        C279   1.269       .  A
C279        O280   1.264       .  A
C279        C525   1.468       .  S
O280      Cr1309   1.981       .  S
O281      Cr1309   1.968       .  S
O281       C1306   1.257       .  A
C282       O1305   1.257       .  A
C282        C399   1.501       .  S
Cr283       O286   1.768       .  S
Cr284      O1302   1.989       .  S
Cr284       O286   1.776       .  S
Cr285      O1304   1.980   1_455  S
Cr285      O1305   1.968       .  S
Cr285       O286   1.770       .  S
O287       Cr305   2.030       .  S
O287        C295   1.269       .  A
O288       Cr305   1.993       .  S
O288        C289   1.263       .  A
C289        O290   1.270       .  A
C289        C483   1.484       .  S
O290       Cr306   1.988       .  S
O291       Cr306   1.990       .  S
O291        C292   1.254       .  A
C292        O293   1.249       .  A
C292        C578   1.472       .  S
O293       Cr307   1.957       .  S
O294       Cr307   1.999       .  S
O294        C295   1.263       .  A
C295        C875   1.515       .  S
O296       Cr305   2.050       .  S
O296        C304   1.273       .  A
O297       Cr305   2.039       .  S
O297        C298   1.282       .  A
C298        O299   1.255       .  A
C298        C368   1.490       .  S
O299       Cr306   1.974       .  S
O300      Cr1330   2.000       .  S
O300        C301   1.270       .  A
C301        O302   1.267       .  A
C301        C497   1.491   1_655  S
O302      Cr1331   1.990       .  S
O303       Cr307   1.964       .  S
O303        C304   1.255       .  A
C304        C396   1.503       .  S
Cr305       O308   1.770       .  S
Cr306      O1324   2.002       .  S
Cr306       O308   1.780       .  S
Cr307      O1326   1.991       .  S
Cr307       O308   1.766       .  S
O309       Cr327   2.037       .  S
O309        C317   1.271       .  A
O310       Cr327   1.994       .  S
O310        C311   1.266       .  A
C311        O312   1.265       .  A
C311        C455   1.470       .  S
O312       Cr328   1.979       .  S
O313       Cr328   2.002       .  S
O313        C314   1.259       .  A
C314        O315   1.244       .  A
C314        C721   1.475       .  S
O315       Cr329   1.951       .  S
O316       Cr329   2.014       .  S
O316        C317   1.269       .  A
C317        C847   1.532       .  S
O318       Cr327   2.039       .  S
O318        C326   1.274       .  A
O319       Cr327   2.049       .  S
O319        C320   1.280       .  A
C320        O321   1.263       .  A
C320        C385   1.513       .  S
O321       Cr328   1.990       .  S
O322      Cr1352   1.975       .  S
O322        C323   1.264       .  A
C323        O324   1.270       .  A
C323        C441   1.474       .  S
O324      Cr1353   2.002       .  S
O325      Cr1353   1.961       .  S
O325       C1350   1.250       .  A
C326       O1349   1.250       .  A
C326        C354   1.495       .  S
Cr327       O330   1.764       .  S
Cr328      O1346   1.973       .  S
Cr328       O330   1.774       .  S
Cr329      O1348   2.002   1_455  S
Cr329      O1349   1.960       .  S
Cr329       O330   1.768       .  S
O331       Cr349   2.098       .  S
O331        C339   1.295       .  A
O332       Cr349   1.956       .  S
O332        C333   1.254       .  A
C333        O334   1.266       .  A
C333        C410   1.476       .  S
O334       Cr350   2.012       .  S
O335       Cr350   1.993       .  S
O335        C336   1.259       .  A
C336        O337   1.243       .  A
C336        C665   1.444       .  S
O337       Cr351   1.924       .  S
O338       Cr351   1.957       .  S
O338        C339   1.260       .  A
C339        C749   1.533       .  S
O340       Cr349   2.031       .  S
O340        C348   1.260       .  A
O341       Cr349   2.065       .  S
O341        C342   1.284       .  A
C342        O343   1.252       .  A
C342        C371   1.509       .  S
O343       Cr350   1.945       .  S
O344      Cr1374   2.011       .  S
O344        C345   1.273   1_655  A
C345        O346   1.267       .  A
C345        C427   1.470       .  S
O346      Cr1375   1.976   1_455  S
O347       Cr351   1.962       .  S
O347        C348   1.246       .  A
C348        C357   1.481       .  S
Cr349       O352   1.769       .  S
Cr350      O1368   2.011       .  S
Cr350       O352   1.774       .  S
Cr351      O1370   1.976       .  S
Cr351       O352   1.773       .  S
C353        C354   1.399       .  A
C353        C358   1.402       .  A
C353        H360   1.081       .  S
C354       C1379   1.424   1_455  A
C355        C356   1.406       .  A
C355       C1378   1.423       .  A
C355        N362   1.429       .  S
C356        C357   1.398       .  A
C356        H361   1.082       .  S
C357       C1382   1.417       .  A
C358       C1381   1.417   1_455  A
C358        N359   1.427       .  S
N359        O363   1.262       .  A
N359        O364   1.262       .  A
N362        O366   1.262       .  A
N362        O365   1.262       .  A
C367        C368   1.387       .  A
C367        C372   1.402       .  A
C367        H374   1.083       .  S
C368        C369   1.424       .  A
C369        C370   1.408       .  A
C369        N376   1.428       .  S
C370        C371   1.400       .  A
C370        H375   1.081       .  S
C371        C372   1.431       .  A
C372       N1397   1.422       .  S
N373       C1396   1.423       .  S
N373        O377   1.260       .  A
N373        O378   1.262       .  A
N376        O380   1.262       .  A
N376        O379   1.262       .  A
C381        C382   1.424   1_545  A
C381        C386   1.410       .  A
C381       H1412   1.081       .  S
C382        C383   1.407       .  A
C383        C384   1.412       .  A
C383        N390   1.426       .  S
C384        C385   1.420   1_565  A
C384        H389   1.081       .  S
C385        C386   1.408       .  A
C386       N1411   1.429       .  S
N387       C1410   1.429       .  S
N387        O391   1.262       .  A
N387        O392   1.262       .  A
H388       C1405   1.081       .  S
N390        O394   1.262       .  A
N390        O393   1.262       .  A
C395        C400   1.408   1_655  A
C395       C1420   1.412       .  A
C395        H402   1.081   1_655  S
C396        C397   1.412       .  A
C396       C1419   1.412       .  A
C397        C398   1.407       .  A
C397        N404   1.428       .  S
C398       C1423   1.409       .  A
C398        H403   1.070       .  S
C399        C400   1.412       .  A
C399       C1422   1.409   1_455  A
C400        N401   1.428       .  S
N401        O405   1.262       .  A
N401        O406   1.262       .  A
N404        O408   1.262       .  A
N404        O407   1.262       .  A
C409        C410   1.396       .  A
C409        C414   1.403       .  A
C409        H416   1.081       .  S
C410        C411   1.413       .  A
C411        C412   1.397       .  A
C411        N418   1.430       .  S
C412        C413   1.404       .  A
C412        H417   1.079       .  S
C413        C414   1.422       .  A
C414        N415   1.427       .  S
N415        O419   1.260       .  A
N415        O420   1.261       .  A
N418        O422   1.262       .  A
N418        O421   1.262       .  A
C423        C424   1.403       .  A
C423        C428   1.386       .  A
C423        H430   1.082       .  S
C424        C425   1.417       .  A
C425        C426   1.407       .  A
C425        N432   1.428       .  S
C426        C427   1.405       .  A
C426        H431   1.082       .  S
C427        C428   1.401       .  A
C428        N429   1.421       .  S
N429        O433   1.262       .  A
N429        O434   1.262       .  A
N432        O436   1.262       .  A
N432        O435   1.262       .  A
C437        C438   1.404       .  A
C437        C442   1.395       .  A
C437        H444   1.082       .  S
C438        C439   1.412   1_565  A
C439        C440   1.394       .  A
C439        N446   1.429       .  S
C440        C441   1.404       .  A
C440        H445   1.081       .  S
C441        C442   1.411   1_545  A
C442        N443   1.428       .  S
N443        O447   1.262       .  A
N443        O448   1.262       .  A
N446        O450   1.262       .  A
N446        O449   1.262       .  A
C451        C452   1.406       .  A
C451        C456   1.390       .  A
C451        H458   1.083       .  S
C452        C453   1.404       .  A
C453        C454   1.396   1_565  A
C453        N460   1.431       .  S
C454        C455   1.410       .  A
C454        H459   1.084       .  S
C455        C456   1.407   1_545  A
C456        N457   1.429       .  S
N457        O461   1.262       .  A
N457        O462   1.262   1_565  A
N460        O464   1.262   1_565  A
N460        O463   1.262       .  A
C465        C466   1.402       .  A
C465        C470   1.405       .  A
C465        H472   1.082       .  S
C466        C467   1.423       .  A
C467        C468   1.408       .  A
C467        N474   1.429       .  S
C468        C469   1.401       .  A
C468        H473   1.082       .  S
C469        C470   1.420       .  A
C470        N471   1.427       .  S
N471        O475   1.260       .  A
N471        O476   1.262       .  A
N474        O478   1.262       .  A
N474        O477   1.262       .  A
C479        C480   1.401       .  A
C479        C484   1.397       .  A
C479        H486   1.082       .  S
C480        C481   1.420       .  A
C481        C482   1.396       .  A
C481        N488   1.428       .  S
C482        C483   1.398       .  A
C482        H487   1.082       .  S
C483        C484   1.420       .  A
C484        N485   1.429       .  S
N485        O489   1.262       .  A
N485        O490   1.262       .  A
N488        O492   1.260       .  A
N488        O491   1.261       .  A
C493        C494   1.410       .  A
C493        C498   1.402       .  A
C493        H500   1.082       .  S
C494        C495   1.411       .  A
C495        C496   1.396       .  A
C495        N502   1.429       .  S
C496        C497   1.411       .  A
C496        H501   1.082       .  S
C497        C498   1.411       .  A
C498        N499   1.428   1_455  S
N499        O503   1.262       .  A
N499        O504   1.262       .  A
N502        O506   1.262       .  A
N502        O505   1.262       .  A
C507        C508   1.399       .  A
C507        C512   1.408       .  A
C507        H514   1.082       .  S
C508        C509   1.420       .  A
C509        C510   1.408       .  A
C509        N516   1.430       .  S
C510        C511   1.401       .  A
C510        H515   1.082       .  S
C511        C512   1.419       .  A
C512        N513   1.428       .  S
N513        O517   1.261       .  A
N513        O518   1.262       .  A
N516        O520   1.262       .  A
N516        O519   1.262       .  A
C521        C522   1.398   1_565  A
C521        C526   1.391       .  A
C521        H528   1.082       .  S
C522        C523   1.414       .  A
C523        C524   1.399       .  A
C523        N530   1.428       .  S
C524        C525   1.400   1_545  A
C524        H529   1.082       .  S
C525        C526   1.412       .  A
C526        N527   1.428       .  S
N527        O531   1.261       .  A
N527        O532   1.262       .  A
N530        O534   1.262       .  A
N530        O533   1.262       .  A
C535        C536   1.408       .  A
C535        C540   1.398       .  A
C535        H542   1.080       .  S
C536        C537   1.406       .  A
C537        C538   1.395   1_565  A
C537        N544   1.430       .  S
C538        C539   1.411       .  A
C538        H543   1.077       .  S
C539        C540   1.407   1_545  A
C540        N541   1.428       .  S
N541        O545   1.262   1_565  A
N541        O546   1.262       .  A
N544        O548   1.262       .  A
N544        O547   1.262   1_565  A
C549        C550   1.424   1_545  A
C549        C554   1.405       .  A
C549        H556   1.081       .  S
C550        C551   1.407       .  A
C551        C552   1.411       .  A
C551        N558   1.428       .  S
C552        C553   1.422   1_565  A
C552        H557   1.082       .  S
C553        C554   1.402       .  A
C554        N555   1.427       .  S
N555        O559   1.262       .  A
N555        O560   1.262       .  A
N558        O562   1.262       .  A
N558        O561   1.262       .  A
C563        C564   1.403       .  A
C563        C568   1.404       .  A
C563        H570   1.082       .  S
C564        C565   1.421       .  A
C565        C566   1.410       .  A
C565        N572   1.428       .  S
C566        C567   1.404       .  A
C566        H571   1.082       .  S
C567        C568   1.417       .  A
C568        N569   1.427       .  S
N569        O573   1.262       .  A
N569        O574   1.260       .  A
N572        O576   1.262       .  A
N572        O575   1.262       .  A
C577        C578   1.406       .  A
C577        C582   1.396       .  A
C577        H584   1.080       .  S
C578        C579   1.418       .  A
C579        C580   1.388       .  A
C579        N586   1.430       .  S
C580       C1605   1.395       .  A
C580       H1609   1.083       .  S
C581       C1604   1.395       .  A
C581       C1606   1.406   1_455  A
C582       C1605   1.406       .  A
C582       N1607   1.429       .  S
N583       C1606   1.429       .  S
N583       O1611   1.262       .  A
N583        O588   1.262   1_655  A
H585       C1604   1.083       .  S
N586        O590   1.261       .  A
N586        O589   1.262       .  A
O587       N1607   1.262       .  A
C591        C592   1.413       .  A
C591        C596   1.405       .  A
C591        H598   1.082       .  S
C592        C593   1.412       .  A
C593        C594   1.416       .  A
C593        N600   1.427       .  S
C594        C595   1.416       .  A
C594        H599   1.081       .  S
C595        C596   1.415       .  A
C596        N597   1.429       .  S
N597        O601   1.262       .  A
N597        O602   1.262       .  A
N600        O604   1.262       .  A
N600        O603   1.262       .  A
C605        C610   1.404       .  A
C605       C1630   1.404       .  A
C605        H612   1.082       .  S
C606        C607   1.407       .  A
C606       C1629   1.404   1_455  A
C607        C608   1.403       .  A
C607        N614   1.427       .  S
C608       C1633   1.408   1_455  A
C608        H613   1.082       .  S
C609        C610   1.414       .  A
C609       C1632   1.409       .  A
C610        N611   1.429       .  S
N611        O615   1.262       .  A
N611        O616   1.262       .  A
N614        O618   1.262       .  A
N614        O617   1.262       .  A
C619        C624   1.394       .  A
C619       C1644   1.405       .  A
C619        H626   1.048       .  S
C620        C621   1.407   1_565  A
C620       C1643   1.405   1_455  A
C621        C622   1.395   1_455  A
C621        N628   1.430       .  S
C622       C1647   1.407       .  A
C622        H627   1.036       .  S
C623        C624   1.408   1_545  A
C623       C1646   1.407       .  A
C624        N625   1.429       .  S
N625        O629   1.262       .  A
N625        O630   1.262       .  A
N628        O632   1.262       .  A
N628        O631   1.262       .  A
C633        C634   1.401       .  A
C633        C638   1.411       .  A
C633        H640   1.080       .  S
C634        C635   1.427       .  A
C635        C636   1.415       .  A
C635        N642   1.427       .  S
C636        C637   1.404       .  A
C636        H641   1.081       .  S
C637        C638   1.426       .  A
C638        N639   1.427       .  S
N639        O643   1.262       .  A
N639        O644   1.261       .  A
N642        O646   1.261       .  A
N642        O645   1.262       .  A
C647        C648   1.416   1_556  A
C647        C652   1.412       .  A
C647        H654   1.082       .  S
C648        C649   1.418       .  A
C649        C650   1.421   1_554  A
C649        N656   1.427       .  S
C650        C651   1.416       .  A
C650        H655   1.081       .  S
C651        C652   1.415       .  A
C652        N653   1.428       .  S
N653        O657   1.262       .  A
N653        O658   1.262       .  A
N656        O660   1.261       .  A
N656        O659   1.261       .  A
C661        C666   1.390       .  A
C661       C1686   1.407   1_556  A
C661       H1692   1.083       .  S
C662       C1685   1.407   1_554  A
C662       C1687   1.395       .  A
C663        C664   1.380   1_554  A
C663       C1686   1.395       .  A
C663        N670   1.429       .  S
C664        C665   1.408       .  A
C664        H669   1.080       .  S
C665        C666   1.399       .  A
C666        N667   1.428       .  S
N667        O671   1.262       .  A
N667        O672   1.262       .  A
H668       C1685   1.083       .  S
N670       O1698   1.262       .  A
N670        O673   1.262       .  A
O674       N1694   1.262       .  A
C675        C676   1.411       .  A
C675        C680   1.407       .  A
C675        H682   1.082       .  S
C676        C677   1.402       .  A
C677        C678   1.402       .  A
C677        N684   1.428       .  S
C678        C679   1.416       .  A
C678        H683   1.082       .  S
C679        C680   1.409       .  A
C680        N681   1.428       .  S
N681        O685   1.262       .  A
N681        O686   1.262       .  A
N684        O688   1.262       .  A
N684       O1711   1.262       .  A
O687       N1708   1.262       .  A
C689        C690   1.416   1_565  A
C689        C694   1.411       .  A
C689        H696   1.082       .  S
C690        C691   1.408       .  A
C691        C692   1.413       .  A
C691        N698   1.427       .  S
C692        C693   1.421   1_545  A
C692        H697   1.081       .  S
C693        C694   1.413       .  A
C694        N695   1.427       .  S
N695        O699   1.262       .  A
N695        O700   1.261       .  A
N698        O702   1.262       .  A
N698        O701   1.262       .  A
C703        C704   1.397       .  A
C703        C708   1.403       .  A
C703        H710   1.082       .  S
C704       C1729   1.418       .  A
C705        C706   1.405       .  A
C705       C1728   1.418   1_455  A
C705        N712   1.428       .  S
C706        C707   1.398       .  A
C706        H711   1.083       .  S
C707       C1732   1.415   1_455  A
C708       C1731   1.415       .  A
C708        N709   1.426       .  S
N709        O713   1.262       .  A
N709        O714   1.261       .  A
N712        O716   1.262       .  A
N712        O715   1.262       .  A
C717        C722   1.397   1_655  A
C717       C1742   1.399       .  A
C717        H724   1.083       .  S
C718        C719   1.406   1_544  A
C718       C1741   1.399       .  A
C719        C720   1.391       .  A
C719        N726   1.429       .  S
C720       C1745   1.406   1_565  A
C720        H725   1.081       .  S
C721        C722   1.412   1_556  A
C721       C1744   1.406   1_445  A
C722        N723   1.426       .  S
N723        O727   1.261       .  A
N723        O728   1.262       .  A
N726        O730   1.261       .  A
N726        O729   1.262       .  A
C731        C732   1.416   1_556  A
C731        C736   1.415       .  A
C731        H738   1.082       .  S
C732        C733   1.415       .  A
C733        C734   1.418   1_554  A
C733        N740   1.428       .  S
C734        C735   1.417       .  A
C734        H739   1.082       .  S
C735        C736   1.412       .  A
C736        N737   1.428       .  S
N737        O741   1.262       .  A
N737        O742   1.262       .  A
N740        O744   1.262       .  A
N740        O743   1.262       .  A
C745        C746   1.397       .  A
C745        C750   1.405   1_554  A
C745        H752   1.082       .  S
C746        C747   1.428   1_554  A
C747        C748   1.428       .  A
C747        N754   1.428       .  S
C748        C749   1.411       .  A
C748        H753   1.081       .  S
C749        C750   1.431       .  A
C750        N751   1.425   1_556  S
N751        O755   1.262       .  A
N751        O756   1.262       .  A
N754        O758   1.261   1_556  A
N754        O757   1.260       .  A
C759        C760   1.400       .  A
C759        C764   1.379       .  A
C759        H766   1.083       .  S
C760        C761   1.408       .  A
C761        C762   1.386   1_556  A
C761        N768   1.430       .  S
C762        C763   1.404       .  A
C762        H767   1.082       .  S
C763        C764   1.408   1_554  A
C764        N765   1.426       .  S
N765        O769   1.263   1_556  A
N765        O770   1.261       .  A
N768        O772   1.262       .  A
N768        O771   1.262   1_556  A
C773        C774   1.402       .  A
C773        C778   1.401       .  A
C773        H780   1.074       .  S
C774        C775   1.414       .  A
C775        C776   1.400       .  A
C775        N782   1.429       .  S
C776        C777   1.403       .  A
C776        H781   1.080       .  S
C777        C778   1.419       .  A
C778        N779   1.429       .  S
N779        O783   1.262       .  A
N779        O784   1.262       .  A
N782        O786   1.262       .  A
N782        O785   1.262       .  A
C787        C788   1.395       .  A
C787        C792   1.390       .  A
C787        H794   1.083       .  S
C788        C789   1.410       .  A
C789        C790   1.399       .  A
C789        N796   1.428       .  S
C790        C791   1.407       .  A
C790        H795   1.082       .  S
C791        C792   1.416       .  A
C792        N793   1.424       .  S
N793        O797   1.258       .  A
N793        O798   1.259       .  A
N796        O800   1.262       .  A
N796        O799   1.262       .  A
C801        C802   1.404   1_565  A
C801        C806   1.397       .  A
C801        H808   1.081       .  S
C802        C803   1.418       .  A
C803        C804   1.392       .  A
C803        N810   1.429       .  S
C804        C805   1.395   1_545  A
C804        H809   1.082       .  S
C805        C806   1.411       .  A
C806        N807   1.428       .  S
N807        O811   1.260       .  A
N807        O812   1.262       .  A
N810        O814   1.261       .  A
N810        O813   1.261       .  A
C815        C816   1.401   1_565  A
C815        C820   1.397       .  A
C815        H822   1.083       .  S
C816        C817   1.413       .  A
C817        C818   1.398   1_545  A
C817        N824   1.429       .  S
C818        C819   1.400       .  A
C818        H823   1.084       .  S
C819        C820   1.410       .  A
C820        N821   1.428       .  S
N821        O825   1.261       .  A
N821        O826   1.261       .  A
N824        O828   1.262       .  A
N824        O827   1.262       .  A
C829        C830   1.405       .  A
C829        C834   1.413       .  A
C829        H836   1.082       .  S
C830        C831   1.424       .  A
C831        C832   1.404       .  A
C831        N838   1.423       .  S
C832        C833   1.395       .  A
C832        H837   1.082       .  S
C833        C834   1.419       .  A
C834        N835   1.426       .  S
N835        O839   1.259       .  A
N835        O840   1.262       .  A
N838        O842   1.262       .  A
N838        O841   1.260       .  A
C843        C844   1.412   1_556  A
C843        C848   1.417       .  A
C843        H850   1.081       .  S
C844        C845   1.417       .  A
C845        C846   1.422   1_554  A
C845        N852   1.429       .  S
C846        C847   1.417       .  A
C846        H851   1.078       .  S
C847        C848   1.421       .  A
C848        N849   1.428       .  S
N849        O853   1.262       .  A
N849        O854   1.261       .  A
N852        O856   1.261       .  A
N852        O855   1.262       .  A
C857        C858   1.402       .  A
C857        C862   1.392   1_556  A
C857        H864   1.082       .  S
C858        C859   1.412   1_565  A
C859        C860   1.387   1_556  A
C859        N866   1.430       .  S
C860        C861   1.399       .  A
C860        H865   1.082       .  S
C861        C862   1.413   1_545  A
C862        N863   1.430       .  S
N863        O867   1.262       .  A
N863        O868   1.262       .  A
N866        O870   1.262       .  A
N866        O869   1.262       .  A
C871        C872   1.421       .  A
C871        C876   1.422       .  A
C871        H878   1.083       .  S
C872        C873   1.421       .  A
C873        C874   1.413       .  A
C873        N880   1.428       .  S
C874        C875   1.408       .  A
C874        H879   1.081       .  S
C875        C876   1.411       .  A
C876        N877   1.429       .  S
N877        O881   1.262       .  A
N877        O882   1.261       .  A
N880        O884   1.262       .  A
N880        O883   1.262       .  A
C885        C886   1.402       .  A
C885        C890   1.388       .  A
C885        H892   1.083       .  S
C886        C887   1.409       .  A
C887        C888   1.391       .  A
C887        N894   1.431       .  S
C888        C889   1.408       .  A
C888        H893   1.084       .  S
C889        C890   1.411       .  A
C890        N891   1.429       .  S
N891        O895   1.261       .  A
N891        O896   1.262       .  A
N894        O898   1.262       .  A
N894        O897   1.262       .  A
C899        C900   1.397       .  A
C899        C904   1.395       .  A
C899        H906   1.082       .  S
C900        C901   1.411       .  A
C901        C902   1.397       .  A
C901        N908   1.429       .  S
C902        C903   1.403       .  A
C902        H907   1.082       .  S
C903        C904   1.416       .  A
C904        N905   1.429       .  S
N905        O909   1.262       .  A
N905        O910   1.262       .  A
N908        O912   1.262       .  A
N908        O911   1.262       .  A
C913        C914   1.406       .  A
C913        C918   1.401       .  A
C913        H920   1.082       .  S
C914        C915   1.409       .  A
C915        C916   1.394       .  A
C915        N922   1.428       .  S
C916        C917   1.404       .  A
C916        H921   1.084       .  S
C917        C918   1.410       .  A
C918        N919   1.429       .  S
N919        O923   1.262       .  A
N919        O924   1.262       .  A
N922        O926   1.262       .  A
N922        O925   1.262       .  A
C927        C928   1.421       .  A
C927        C932   1.407       .  A
C927        H934   1.082       .  S
C928        C929   1.402       .  A
C929        C930   1.404       .  A
C929        N936   1.428       .  S
C930        C931   1.424       .  A
C930        H935   1.081       .  S
C931        C932   1.406       .  A
C932        N933   1.428       .  S
N933        O937   1.262       .  A
N933        O938   1.262       .  A
N936        O940   1.262       .  A
N936        O939   1.262       .  A
C941        C942   1.401   1_545  A
C941        C946   1.402       .  A
C941        H948   1.081       .  S
C942        C943   1.411       .  A
C943        C944   1.387       .  A
C943        N950   1.418       .  S
C944        C945   1.390   1_565  A
C944        H949   1.083       .  S
C945        C946   1.414       .  A
C946        N947   1.427       .  S
N947        O951   1.262       .  A
N947        O952   1.262       .  A
N950        O954   1.262       .  A
N950        O953   1.261       .  A
C955        C956   1.413       .  A
C955        C960   1.397   1_545  A
C955        H962   1.080       .  S
C956        C957   1.405   1_545  A
C957        C958   1.398       .  A
C957        N964   1.428       .  S
C958        C959   1.411       .  A
C958        H963   1.081       .  S
C959        C960   1.407       .  A
C960        N961   1.430   1_565  S
N961        O965   1.262       .  A
N961        O966   1.262   1_545  A
N964        O968   1.262   1_455  A
N964        O967   1.262   1_565  A
C969        C970   1.420   1_545  A
C969        C974   1.406       .  A
C969        H976   1.082       .  S
C970        C971   1.406       .  A
C971        C972   1.408       .  A
C971        N978   1.428       .  S
C972        C973   1.418   1_565  A
C972        H977   1.082       .  S
C973        C974   1.404       .  A
C974        N975   1.428       .  S
N975        O979   1.261       .  A
N975        O980   1.262       .  A
N978        O982   1.262       .  A
N978        O981   1.262       .  A
C983        C984   1.404       .  A
C983        C988   1.408       .  A
C983        H990   1.082       .  S
C984        C985   1.415       .  A
C985        C986   1.400       .  A
C985        N992   1.417       .  S
C986        C987   1.394       .  A
C986        H991   1.082       .  S
C987        C988   1.420       .  A
C988        N989   1.428       .  S
N989        O993   1.262       .  A
N989        O994   1.262       .  A
N992        O996   1.262       .  A
N992        O995   1.261       .  A
C997        C998   1.404       .  A
C997       C1002   1.412       .  A
C997       H1004   1.082       .  S
C998        C999   1.425       .  A
C999       C1000   1.411       .  A
C999       N1006   1.428       .  S
C1000      C1001   1.403       .  A
C1000      H1005   1.082       .  S
C1001      C1002   1.426       .  A
C1002      N1003   1.428       .  S
N1003      O1007   1.261       .  A
N1003      O1008   1.262       .  A
N1006      O1010   1.262       .  A
N1006      O1009   1.262       .  A
C1011      C1012   1.401       .  A
C1011      C1016   1.386       .  A
C1011      H1018   1.075       .  S
C1012      C1013   1.407   1_545  A
C1013      C1014   1.391       .  A
C1013      N1020   1.429       .  S
C1014      C1015   1.403       .  A
C1014      H1019   1.080       .  S
C1015      C1016   1.409   1_565  A
C1016      N1017   1.430       .  S
N1017      O1021   1.261       .  A
N1017      O1022   1.262       .  A
N1020      O1024   1.262       .  A
N1020      O1023   1.262       .  A
O1025     Cr1043   2.029       .  S
O1025      C1033   1.273       .  A
O1026     Cr1043   1.990       .  S
O1026      C1027   1.265       .  A
C1027      O1028   1.266       .  A
C1027      C1983   1.479       .  S
O1028     Cr1044   1.993       .  S
O1029     Cr1044   1.957       .  S
O1029      C1030   1.247       .  A
C1030      O1031   1.251       .  A
C1030      C2039   1.454       .  S
O1031     Cr1045   1.964       .  S
O1032     Cr1045   1.996       .  S
O1032      C1033   1.262       .  A
C1033      C2022   1.514       .  S
O1034     Cr1043   2.024       .  S
O1034      C1042   1.268       .  A
O1035     Cr1043   2.057       .  S
O1035      C1036   1.282       .  A
C1036      O1037   1.254       .  A
C1036      C1994   1.500       .  S
O1037     Cr1044   1.961       .  S
O1038     Cr1044   1.991       .  S
O1038      C1039   1.270       .  A
C1039      O1040   1.265       .  A
C1039      C1966   1.473       .  S
O1040     Cr1045   1.987       .  S
O1041     Cr1045   1.983       .  S
O1041      C1042   1.258       .  A
C1042      C2008   1.499       .  S
Cr1043     O1046   1.763       .  S
Cr1044     O1046   1.778       .  S
Cr1045     O1046   1.771       .  S
O1047     Cr1065   2.036       .  S
O1047      C1055   1.271       .  A
O1048     Cr1065   2.007       .  S
O1048      C1049   1.266       .  A
C1049      O1050   1.261       .  A
C1049      C1927   1.476       .  S
O1050     Cr1066   1.967       .  S
O1051     Cr1066   1.965       .  S
O1051      C1052   1.254       .  A
C1052      O1053   1.248       .  A
C1052      C1910   1.461       .  S
O1053     Cr1067   1.957       .  S
O1054     Cr1067   2.014       .  S
O1054      C1055   1.266       .  A
C1055      C1896   1.530       .  S
O1056     Cr1065   2.041       .  S
O1056      C1064   1.277       .  A
O1057     Cr1065   2.043       .  S
O1057      C1058   1.280       .  A
C1058      O1059   1.256       .  A
C1058      C1952   1.498       .  S
O1059     Cr1066   1.961       .  S
O1060     Cr1066   1.977       .  S
O1060      C1061   1.264       .  A
C1061      O1062   1.268       .  A
C1061      C1938   1.474       .  S
O1062     Cr1067   2.006       .  S
O1063     Cr1067   1.962       .  S
O1063      C1064   1.252       .  A
C1064      C2011   1.494       .  S
Cr1065     O1068   1.767       .  S
Cr1066     O1068   1.769       .  S
Cr1067     O1068   1.771       .  S
O1069     Cr1087   2.040       .  S
O1069      C1077   1.269       .  A
O1070     Cr1087   2.007       .  S
O1070      C1071   1.268       .  A
C1071      O1072   1.262       .  A
C1071      C1840   1.475       .  S
O1072     Cr1088   1.968       .  S
O1073     Cr1088   1.967       .  S
O1073      C1074   1.251       .  A
C1074      O1075   1.255       .  A
C1074      C1885   1.460       .  S
O1075     Cr1089   1.971       .  S
O1076     Cr1089   2.006       .  S
O1076      C1077   1.265       .  A
C1077      C1868   1.525       .  S
O1078     Cr1087   2.051       .  S
O1078      C1086   1.278       .  A
O1079     Cr1087   2.048       .  S
O1079      C1080   1.279       .  A
C1080      O1081   1.254       .  A
C1080      C1997   1.493       .  S
O1081     Cr1088   1.957       .  S
O1082     Cr1088   1.981       .  S
O1082      C1083   1.267       .  A
C1083      O1084   1.263       .  A
C1083      C1826   1.476       .  S
O1084     Cr1089   1.994       .  S
O1085     Cr1089   1.978       .  S
O1085      C1086   1.256       .  A
C1086      C1857   1.499       .  S
Cr1087     O1090   1.771       .  S
Cr1088     O1090   1.771       .  S
Cr1089     O1090   1.770       .  S
O1091     Cr1109   2.032       .  S
O1091      C1099   1.275       .  A
O1092     Cr1109   2.035       .  S
O1092      C1093   1.276       .  A
C1093      O1094   1.260       .  A
C1093      C1801   1.490       .  S
O1094     Cr1110   1.967       .  S
O1095     Cr1110   1.953       .  S
O1095      C1096   1.252       .  A
C1096      O1097   1.247       .  A
C1096      C1787   1.453       .  S
O1097     Cr1111   1.958       .  S
O1098     Cr1111   2.007       .  S
O1098      C1099   1.262       .  A
C1099      C1770   1.523       .  S
O1100     Cr1109   2.059       .  S
O1100      C1108   1.279       .  A
O1101     Cr1109   2.061       .  S
O1101      C1102   1.280       .  A
C1102      O1103   1.253       .  A
C1102      C1955   1.507       .  S
O1103     Cr1110   1.957       .  S
O1104     Cr1110   1.975       .  S
O1104      C1105   1.266       .  A
C1105      O1106   1.268       .  A
C1105      C1815   1.483       .  S
O1106     Cr1111   2.012       .  S
O1107     Cr1111   1.964       .  S
O1107      C1108   1.255       .  A
C1108      C1854   1.510       .  S
Cr1109     O1112   1.759       .  S
Cr1110     O1112   1.770       .  S
Cr1111     O1112   1.775       .  S
O1113     Cr1131   1.951       .  S
O1113      C1121   1.255       .  A
O1114     Cr1131   1.953       .  S
O1114      C1115   1.255       .  A
C1115      O1116   1.259       .  A
C1115      C1742   1.448   1_565  S
O1116     Cr1132   1.987       .  S
O1117     Cr1132   1.994       .  S
O1117      C1118   1.263       .  A
C1118      O1119   1.255       .  A
C1118      C1829   1.466       .  S
O1119     Cr1133   1.962       .  S
O1120     Cr1133   2.088       .  S
O1120      C1121   1.288       .  A
C1121      C1756   1.517       .  S
O1122     Cr1131   1.978       .  S
O1122      C1130   1.256       .  A
O1123      C1124   1.261       .  A
C1124      O1125   1.266       .  A
C1124      C1843   1.468       .  S
O1126     Cr1132   1.960       .  S
O1126      C1127   1.257       .  A
C1127      O1128   1.282       .  A
C1127      C1717   1.517       .  S
O1128     Cr1133   2.078       .  S
O1129     Cr1133   2.015       .  S
O1129      C1130   1.263       .  A
C1130      C1728   1.482       .  S
Cr1131     O1134   1.778       .  S
Cr1132     O1134   1.771       .  S
Cr1133     O1134   1.781       .  S
O1135     Cr1153   1.962       .  S
O1135      C1143   1.268       .  A
O1136     Cr1153   1.930       .  S
O1136      C1137   1.238       .  A
C1137      O1138   1.249       .  A
C1137      C1686   1.436       .  S
O1138     Cr1154   1.987       .  S
O1139     Cr1154   1.959       .  S
O1139      C1140   1.254       .  A
C1140      O1141   1.253       .  A
C1140      C1812   1.469       .  S
O1141     Cr1155   1.973       .  S
O1142     Cr1155   2.092       .  S
O1142      C1143   1.297       .  A
C1143      C1672   1.524       .  S
O1145      C1146   1.276       .  A
C1146      O1147   1.275   1_655  A
C1146      C1798   1.481       .  S
O1148     Cr1154   1.948       .  S
O1148      C1149   1.258       .  A
C1149      O1150   1.279       .  A
C1149      C1700   1.482       .  S
O1150     Cr1155   2.038       .  S
O1151     Cr1155   2.023       .  S
O1151      C1152   1.254       .  A
C1152      C1731   1.480       .  S
Cr1153     O1156   1.779       .  S
Cr1154     O1156   1.773       .  S
Cr1155     O1156   1.778       .  S
O1157     Cr1175   1.992       .  S
O1157      C1165   1.258       .  A
O1158     Cr1175   1.967       .  S
O1158      C1159   1.254       .  A
C1159      O1160   1.253       .  A
C1159      C1647   1.464       .  S
O1160     Cr1176   1.978       .  S
O1161     Cr1176   1.980       .  S
O1161      C1162   1.265       .  A
C1162      O1163   1.259       .  A
C1162      C1969   1.467       .  S
O1163     Cr1177   1.987       .  S
O1164     Cr1177   2.035       .  S
O1164      C1165   1.273       .  A
C1165      C1658   1.517       .  S
O1166     Cr1175   1.969       .  S
O1166      C1174   1.258       .  A
O1167      C1168   1.262       .  A
C1168      O1169   1.271       .  A
C1168      C1980   1.482       .  S
O1170     Cr1176   1.978       .  S
O1170      C1171   1.260       .  A
C1171      O1172   1.282       .  A
C1171      C1714   1.510       .  S
O1172     Cr1177   2.056       .  S
O1173     Cr1177   2.024       .  S
O1173      C1174   1.267       .  A
C1174      C1633   1.491       .  S
Cr1175     O1178   1.769       .  S
Cr1176     O1178   1.775       .  S
Cr1177     O1178   1.774       .  S
O1179     Cr1197   1.946       .  S
O1179      C1187   1.255       .  A
O1180     Cr1197   1.966       .  S
O1180      C1181   1.259       .  A
C1181      O1182   1.257       .  A
C1181      C1605   1.447       .  S
O1182     Cr1198   1.975       .  S
O1183     Cr1198   2.017       .  S
O1183      C1184   1.265       .  A
C1184      O1185   1.257       .  A
C1184      C1941   1.475       .  S
O1185     Cr1199   1.959       .  S
O1186     Cr1199   2.068       .  S
O1186      C1187   1.282       .  A
C1187      C1616   1.509       .  S
O1189      C1190   1.262       .  A
C1190      O1191   1.265       .  A
C1190      C1924   1.462       .  S
O1192     Cr1198   1.945       .  S
O1192      C1193   1.252       .  A
C1193      O1194   1.278       .  A
C1193      C1703   1.497       .  S
O1194     Cr1199   2.069       .  S
O1195     Cr1199   2.009       .  S
O1195      C1196   1.263       .  A
C1196      C1630   1.480       .  S
Cr1197     O1200   1.766       .  S
Cr1198     O1200   1.771       .  S
Cr1199     O1200   1.777       .  S
O1201     Cr1219   1.989       .  S
O1201      C1209   1.257       .  A
O1202     Cr1219   1.968       .  S
O1202      C1203   1.252       .  A
C1203      O1204   1.252   1_545  A
C1203      C2036   1.455       .  S
O1204     Cr1220   1.975   1_565  S
O1205     Cr1220   1.976       .  S
O1205      C1206   1.265       .  A
C1206      O1207   1.263       .  A
C1206      C1546   1.470       .  S
O1207     Cr1221   1.995       .  S
O1208     Cr1221   2.041       .  S
O1208      C1209   1.272       .  A
C1209      C1661   1.519       .  S
O1210     Cr1219   1.979       .  S
O1210      C1218   1.259       .  A
O1211     Cr1219   1.983       .  S
O1211      C1212   1.264       .  A
C1212      O1213   1.269       .  A
C1212      C1563   1.477       .  S
O1213     Cr1220   1.997       .  S
O1214     Cr1220   1.964       .  S
O1214      C1215   1.256       .  A
C1215      O1216   1.282       .  A
C1215      C1577   1.506       .  S
O1216     Cr1221   2.054       .  S
O1217     Cr1221   2.032       .  S
O1217      C1218   1.274       .  A
C1218      C1588   1.501       .  S
Cr1219     O1222   1.771       .  S
Cr1220     O1222   1.775       .  S
Cr1221     O1222   1.765       .  S
O1223     Cr1241   2.002       .  S
O1223      C1231   1.264       .  A
O1224     Cr1241   1.966       .  S
O1224      C1225   1.252       .  A
C1225      O1226   1.254       .  A
C1225      C1913   1.466       .  S
O1226     Cr1242   1.966       .  S
O1227     Cr1242   1.981       .  S
O1227      C1228   1.264       .  A
C1228      O1229   1.269       .  A
C1228      C1518   1.488       .  S
O1229     Cr1243   2.010       .  S
O1230     Cr1243   2.016       .  S
O1230      C1231   1.267       .  A
C1231      C1619   1.511       .  S
O1232     Cr1241   1.968       .  S
O1232      C1240   1.254       .  A
O1233     Cr1241   1.996       .  S
O1233      C1234   1.264       .  A
C1234      O1235   1.271       .  A
C1234      C1504   1.485       .  S
O1235     Cr1242   1.990       .  S
O1236     Cr1242   1.975       .  S
O1236      C1237   1.255       .  A
C1237      O1238   1.279       .  A
C1237      C1532   1.487       .  S
O1238     Cr1243   2.041       .  S
O1239     Cr1243   2.051       .  S
O1239      C1240   1.275       .  A
C1240      C1591   1.498       .  S
Cr1241     O1244   1.774       .  S
Cr1242     O1244   1.770       .  S
Cr1243     O1244   1.767       .  S
O1245     Cr1263   1.992       .  S
O1245      C1253   1.260       .  A
O1246     Cr1263   1.971       .  S
O1246      C1247   1.256       .  A
C1247      O1248   1.253       .  A
C1247      C1882   1.462       .  S
O1248     Cr1264   1.965       .  S
O1249     Cr1264   1.966       .  S
O1249      C1250   1.261       .  A
C1250      O1251   1.269       .  A
C1250      C1462   1.474       .  S
O1251     Cr1265   2.005       .  S
O1252     Cr1265   2.046       .  S
O1252      C1253   1.272       .  A
C1253      C1759   1.519       .  S
O1254     Cr1263   1.970       .  S
O1254      C1262   1.255       .  A
O1255     Cr1263   1.976       .  S
O1255      C1256   1.262       .  A
C1256      O1257   1.265       .  A
C1256      C1476   1.465       .  S
O1257     Cr1264   1.978       .  S
O1258     Cr1264   1.961       .  S
O1258      C1259   1.254       .  A
C1259      O1260   1.281       .  A
C1259      C1574   1.512       .  S
O1260     Cr1265   2.062       .  S
O1261     Cr1265   2.044       .  S
O1261      C1262   1.276       .  A
C1262      C1490   1.501       .  S
Cr1263     O1266   1.769       .  S
Cr1264     O1266   1.770       .  S
Cr1265     O1266   1.763       .  S
O1267     Cr1285   2.007       .  S
O1267      C1275   1.263       .  A
O1268     Cr1285   1.954       .  S
O1268      C1269   1.249       .  A
C1269      O1270   1.256       .  A
C1269      C1784   1.449       .  S
O1270     Cr1286   1.947       .  S
O1271     Cr1286   1.985       .  S
O1271      C1272   1.260       .  A
C1272      O1273   1.267       .  A
C1272      C1448   1.486       .  S
O1273     Cr1287   1.990       .  S
O1274     Cr1287   2.033       .  S
O1274      C1275   1.267       .  A
C1275      C1675   1.521       .  S
O1276     Cr1285   1.960       .  S
O1276      C1284   1.254       .  A
O1277     Cr1285   2.009       .  S
O1277      C1278   1.263       .  A
C1278      O1279   1.266       .  A
C1278      C1437   1.489       .  S
O1279     Cr1286   1.985       .  S
O1280     Cr1286   1.962       .  S
O1280      C1281   1.255       .  A
C1281      O1282   1.279       .  A
C1281      C1535   1.487       .  S
O1282     Cr1287   2.036       .  S
O1283     Cr1287   2.055       .  S
O1283      C1284   1.278       .  A
C1284      C1493   1.496       .  S
Cr1285     O1288   1.780       .  S
Cr1286     O1288   1.775       .  S
Cr1287     O1288   1.767       .  S
O1289     Cr1307   2.028       .  S
O1289      C1297   1.272       .  A
O1290     Cr1307   1.996       .  S
O1290      C1291   1.266       .  A
C1291      O1292   1.265       .  A
C1291      C1560   1.473       .  S
O1292     Cr1308   1.989       .  S
O1293     Cr1308   1.973       .  S
O1293      C1294   1.250       .  A
C1294      O1295   1.252       .  A
C1294      C1644   1.461       .  S
O1295     Cr1309   1.968       .  S
O1296     Cr1309   1.991       .  S
O1296      C1297   1.259       .  A
C1297      C2025   1.513       .  S
O1298     Cr1307   2.045       .  S
O1298      C1306   1.272       .  A
O1299     Cr1307   2.063       .  S
O1299      C1300   1.284       .  A
C1300      O1301   1.258       .  A
C1300      C1406   1.518       .  S
O1301     Cr1308   1.974       .  S
O1302      C1303   1.269   1_455  A
C1303      O1304   1.263       .  A
C1303      C1549   1.467       .  S
C1306      C1423   1.502       .  S
Cr1307     O1310   1.769       .  S
Cr1308     O1310   1.776       .  S
Cr1309     O1310   1.771       .  S
O1311     Cr1329   2.031       .  S
O1311      C1319   1.269       .  A
O1312     Cr1329   1.992       .  S
O1312      C1313   1.263       .  A
C1313      O1314   1.270       .  A
C1313      C1507   1.483       .  S
O1314     Cr1330   1.986       .  S
O1315     Cr1330   1.989       .  S
O1315      C1316   1.254       .  A
C1316      O1317   1.250       .  A
C1316      C1602   1.472       .  S
O1317     Cr1331   1.957       .  S
O1318     Cr1331   1.999       .  S
O1318      C1319   1.263       .  A
C1319      C1899   1.516       .  S
O1320     Cr1329   2.051       .  S
O1320      C1328   1.273       .  A
O1321     Cr1329   2.040       .  S
O1321      C1322   1.283       .  A
C1322      O1323   1.255       .  A
C1322      C1392   1.492       .  S
O1323     Cr1330   1.974       .  S
O1324      C1325   1.270       .  A
C1325      O1326   1.267       .  A
C1325      C1521   1.492       .  S
O1327     Cr1331   1.963       .  S
O1327      C1328   1.255       .  A
C1328      C1420   1.502       .  S
Cr1329     O1332   1.771       .  S
Cr1330     O1332   1.779       .  S
Cr1331     O1332   1.767       .  S
O1333     Cr1351   2.037       .  S
O1333      C1341   1.271       .  A
O1334     Cr1351   1.992       .  S
O1334      C1335   1.266       .  A
C1335      O1336   1.265       .  A
C1335      C1479   1.470       .  S
O1336     Cr1352   1.981       .  S
O1337     Cr1352   2.002       .  S
O1337      C1338   1.259       .  A
C1338      O1339   1.244       .  A
C1338      C1745   1.475       .  S
O1339     Cr1353   1.951       .  S
O1340     Cr1353   2.014       .  S
O1340      C1341   1.269       .  A
C1341      C1871   1.533       .  S
O1342     Cr1351   2.037       .  S
O1342      C1350   1.273       .  A
O1343     Cr1351   2.049       .  S
O1343      C1344   1.280       .  A
C1344      O1345   1.263       .  A
C1344      C1409   1.514       .  S
O1345     Cr1352   1.991       .  S
O1346      C1347   1.264   1_455  A
C1347      O1348   1.271       .  A
C1347      C1465   1.473       .  S
C1350      C1378   1.495       .  S
Cr1351     O1354   1.765       .  S
Cr1352     O1354   1.774       .  S
Cr1353     O1354   1.769       .  S
O1355     Cr1373   2.098       .  S
O1355      C1363   1.295       .  A
O1356     Cr1373   1.955       .  S
O1356      C1357   1.254       .  A
C1357      O1358   1.266       .  A
C1357      C1434   1.473       .  S
O1358     Cr1374   2.013       .  S
O1359     Cr1374   1.992       .  S
O1359      C1360   1.259       .  A
C1360      O1361   1.244       .  A
C1360      C1689   1.444       .  S
O1361     Cr1375   1.925       .  S
O1362     Cr1375   1.959       .  S
O1362      C1363   1.260       .  A
C1363      C1773   1.534       .  S
O1364     Cr1373   2.031       .  S
O1364      C1372   1.261       .  A
O1365     Cr1373   2.070       .  S
O1365      C1366   1.285       .  A
C1366      O1367   1.251       .  A
C1366      C1395   1.509       .  S
O1367     Cr1374   1.944       .  S
O1368      C1369   1.273       .  A
C1369      O1370   1.268       .  A
C1369      C1451   1.470       .  S
O1371     Cr1375   1.964       .  S
O1371      C1372   1.247       .  A
C1372      C1381   1.481       .  S
Cr1373     O1376   1.768       .  S
Cr1374     O1376   1.773       .  S
Cr1375     O1376   1.771       .  S
C1377      C1378   1.399       .  A
C1377      C1382   1.402       .  A
C1377      H1384   1.081       .  S
C1379      C1380   1.406       .  A
C1379      N1386   1.429       .  S
C1380      C1381   1.398       .  A
C1380      H1385   1.082       .  S
C1382      N1383   1.427       .  S
N1383      O1387   1.262       .  A
N1383      O1388   1.262       .  A
N1386      O1390   1.262       .  A
N1386      O1389   1.262       .  A
C1391      C1392   1.387       .  A
C1391      C1396   1.403       .  A
C1391      H1398   1.082       .  S
C1392      C1393   1.426       .  A
C1393      C1394   1.409       .  A
C1393      N1400   1.429       .  S
C1394      C1395   1.400       .  A
C1394      H1399   1.081       .  S
C1395      C1396   1.432       .  A
N1397      O1401   1.260       .  A
N1397      O1402   1.262       .  A
N1400      O1404   1.262       .  A
N1400      O1403   1.262       .  A
C1405      C1406   1.424   1_545  A
C1405      C1410   1.411       .  A
C1406      C1407   1.407       .  A
C1407      C1408   1.412       .  A
C1407      N1414   1.426       .  S
C1408      C1409   1.420   1_565  A
C1408      H1413   1.081       .  S
C1409      C1410   1.409       .  A
N1411      O1415   1.262       .  A
N1411      O1416   1.262       .  A
N1414      O1418   1.262       .  A
N1414      O1417   1.262       .  A
C1419      C1424   1.408       .  A
C1419      H1426   1.081       .  S
C1420      C1421   1.412       .  A
C1421      C1422   1.407       .  A
C1421      N1428   1.428       .  S
C1422      H1427   1.069       .  S
C1423      C1424   1.412       .  A
C1424      N1425   1.428       .  S
N1425      O1429   1.262       .  A
N1425      O1430   1.262       .  A
N1428      O1432   1.262       .  A
N1428      O1431   1.262       .  A
C1433      C1434   1.396       .  A
C1433      C1438   1.402       .  A
C1433      H1440   1.081       .  S
C1434      C1435   1.412       .  A
C1435      C1436   1.396       .  A
C1435      N1442   1.430       .  S
C1436      C1437   1.403       .  A
C1436      H1441   1.079       .  S
C1437      C1438   1.422       .  A
C1438      N1439   1.428       .  S
N1439      O1443   1.260       .  A
N1439      O1444   1.261       .  A
N1442      O1446   1.262       .  A
N1442      O1445   1.262       .  A
C1447      C1448   1.402       .  A
C1447      C1452   1.385       .  A
C1447      H1454   1.082       .  S
C1448      C1449   1.417       .  A
C1449      C1450   1.408       .  A
C1449      N1456   1.427       .  S
C1450      C1451   1.405       .  A
C1450      H1455   1.082       .  S
C1451      C1452   1.400       .  A
C1452      N1453   1.420       .  S
N1453      O1457   1.262       .  A
N1453      O1458   1.262       .  A
N1456      O1460   1.262       .  A
N1456      O1459   1.262       .  A
C1461      C1462   1.404       .  A
C1461      C1466   1.395       .  A
C1461      H1468   1.082       .  S
C1462      C1463   1.412   1_565  A
C1463      C1464   1.393       .  A
C1463      N1470   1.429       .  S
C1464      C1465   1.404       .  A
C1464      H1469   1.081       .  S
C1465      C1466   1.411   1_545  A
C1466      N1467   1.429       .  S
N1467      O1471   1.262       .  A
N1467      O1472   1.262       .  A
N1470      O1474   1.262       .  A
N1470      O1473   1.262       .  A
C1475      C1476   1.406       .  A
C1475      C1480   1.390       .  A
C1475      H1482   1.083       .  S
C1476      C1477   1.404       .  A
C1477      C1478   1.396   1_565  A
C1477      N1484   1.431       .  S
C1478      C1479   1.411       .  A
C1478      H1483   1.084       .  S
C1479      C1480   1.407   1_545  A
C1480      N1481   1.429       .  S
N1481      O1485   1.262       .  A
N1481      O1486   1.262   1_565  A
N1484      O1488   1.262   1_565  A
N1484      O1487   1.262       .  A
C1489      C1490   1.402       .  A
C1489      C1494   1.405       .  A
C1489      H1496   1.082       .  S
C1490      C1491   1.423       .  A
C1491      C1492   1.408       .  A
C1491      N1498   1.429       .  S
C1492      C1493   1.401       .  A
C1492      H1497   1.082       .  S
C1493      C1494   1.419       .  A
C1494      N1495   1.428       .  S
N1495      O1499   1.260       .  A
N1495      O1500   1.262       .  A
N1498      O1502   1.262       .  A
N1498      O1501   1.262       .  A
C1503      C1504   1.401       .  A
C1503      C1508   1.397       .  A
C1503      H1510   1.082       .  S
C1504      C1505   1.420       .  A
C1505      C1506   1.396       .  A
C1505      N1512   1.428       .  S
C1506      C1507   1.398       .  A
C1506      H1511   1.082       .  S
C1507      C1508   1.420       .  A
C1508      N1509   1.429       .  S
N1509      O1513   1.262       .  A
N1509      O1514   1.262       .  A
N1512      O1516   1.260       .  A
N1512      O1515   1.261       .  A
C1517      C1518   1.410       .  A
C1517      C1522   1.403       .  A
C1517      H1524   1.082       .  S
C1518      C1519   1.411       .  A
C1519      C1520   1.396       .  A
C1519      N1526   1.429       .  S
C1520      C1521   1.411       .  A
C1520      H1525   1.082       .  S
C1521      C1522   1.412       .  A
C1522      N1523   1.428       .  S
N1523      O1527   1.262       .  A
N1523      O1528   1.262       .  A
N1526      O1530   1.262       .  A
N1526      O1529   1.262       .  A
C1531      C1532   1.400       .  A
C1531      C1536   1.408       .  A
C1531      H1538   1.082       .  S
C1532      C1533   1.421       .  A
C1533      C1534   1.407       .  A
C1533      N1540   1.430       .  S
C1534      C1535   1.400       .  A
C1534      H1539   1.083       .  S
C1535      C1536   1.419       .  A
C1536      N1537   1.428       .  S
N1537      O1541   1.261       .  A
N1537      O1542   1.262       .  A
N1540      O1544   1.262       .  A
N1540      O1543   1.262       .  A
C1545      C1546   1.398   1_565  A
C1545      C1550   1.391       .  A
C1545      H1552   1.082       .  S
C1546      C1547   1.414       .  A
C1547      C1548   1.399       .  A
C1547      N1554   1.428       .  S
C1548      C1549   1.399   1_545  A
C1548      H1553   1.082       .  S
C1549      C1550   1.412       .  A
C1550      N1551   1.428       .  S
N1551      O1555   1.261       .  A
N1551      O1556   1.262       .  A
N1554      O1558   1.262       .  A
N1554      O1557   1.262       .  A
C1559      C1560   1.408       .  A
C1559      C1564   1.398       .  A
C1559      H1566   1.079       .  S
C1560      C1561   1.406       .  A
C1561      C1562   1.396   1_565  A
C1561      N1568   1.430       .  S
C1562      C1563   1.410       .  A
C1562      H1567   1.076       .  S
C1563      C1564   1.406   1_545  A
C1564      N1565   1.428       .  S
N1565      O1569   1.262   1_565  A
N1565      O1570   1.262       .  A
N1568      O1572   1.262       .  A
N1568      O1571   1.262   1_565  A
C1573      C1574   1.424   1_545  A
C1573      C1578   1.405       .  A
C1573      H1580   1.081       .  S
C1574      C1575   1.407       .  A
C1575      C1576   1.411       .  A
C1575      N1582   1.428       .  S
C1576      C1577   1.423   1_565  A
C1576      H1581   1.082       .  S
C1577      C1578   1.402       .  A
C1578      N1579   1.427       .  S
N1579      O1583   1.262       .  A
N1579      O1584   1.262       .  A
N1582      O1586   1.262       .  A
N1582      O1585   1.262       .  A
C1587      C1588   1.403       .  A
C1587      C1592   1.403       .  A
C1587      H1594   1.082       .  S
C1588      C1589   1.420       .  A
C1589      C1590   1.411       .  A
C1589      N1596   1.428       .  S
C1590      C1591   1.405       .  A
C1590      H1595   1.082       .  S
C1591      C1592   1.417       .  A
C1592      N1593   1.427       .  S
N1593      O1597   1.261       .  A
N1593      O1598   1.260       .  A
N1596      O1600   1.262       .  A
N1596      O1599   1.262       .  A
C1601      C1602   1.406       .  A
C1601      C1606   1.396       .  A
C1601      H1608   1.080       .  S
C1602      C1603   1.418       .  A
C1603      C1604   1.388   1_655  A
C1603      N1610   1.430       .  S
N1607      O1612   1.262       .  A
N1610      O1614   1.261       .  A
N1610      O1613   1.262       .  A
C1615      C1616   1.413       .  A
C1615      C1620   1.405       .  A
C1615      H1622   1.082       .  S
C1616      C1617   1.412       .  A
C1617      C1618   1.415       .  A
C1617      N1624   1.427       .  S
C1618      C1619   1.416       .  A
C1618      H1623   1.081       .  S
C1619      C1620   1.415       .  A
C1620      N1621   1.429       .  S
N1621      O1625   1.262       .  A
N1621      O1626   1.262       .  A
N1624      O1628   1.262       .  A
N1624      O1627   1.262       .  A
C1629      C1634   1.403       .  A
C1629      H1636   1.082       .  S
C1630      C1631   1.407       .  A
C1631      C1632   1.403       .  A
C1631      N1638   1.427       .  S
C1632      H1637   1.082       .  S
C1633      C1634   1.414       .  A
C1634      N1635   1.429       .  S
N1635      O1639   1.262       .  A
N1635      O1640   1.262       .  A
N1638      O1642   1.262       .  A
N1638      O1641   1.262       .  A
C1643      C1648   1.393       .  A
C1643      H1650   1.048       .  S
C1644      C1645   1.407   1_565  A
C1645      C1646   1.395       .  A
C1645      N1652   1.430       .  S
C1646      H1651   1.040       .  S
C1647      C1648   1.408   1_545  A
C1648      N1649   1.429       .  S
N1649      O1653   1.262       .  A
N1649      O1654   1.262       .  A
N1652      O1656   1.262       .  A
N1652      O1655   1.262       .  A
C1657      C1658   1.400       .  A
C1657      C1662   1.411       .  A
C1657      H1664   1.080       .  S
C1658      C1659   1.427       .  A
C1659      C1660   1.415       .  A
C1659      N1666   1.427       .  S
C1660      C1661   1.404       .  A
C1660      H1665   1.081       .  S
C1661      C1662   1.426       .  A
C1662      N1663   1.426       .  S
N1663      O1667   1.262       .  A
N1663      O1668   1.261       .  A
N1666      O1670   1.261       .  A
N1666      O1669   1.262       .  A
C1671      C1672   1.416   1_556  A
C1671      C1676   1.412       .  A
C1671      H1678   1.081       .  S
C1672      C1673   1.417       .  A
C1673      C1674   1.420   1_554  A
C1673      N1680   1.427       .  S
C1674      C1675   1.415       .  A
C1674      H1679   1.080       .  S
C1675      C1676   1.414       .  A
C1676      N1677   1.428       .  S
N1677      O1681   1.262       .  A
N1677      O1682   1.262       .  A
N1680      O1684   1.261       .  A
N1680      O1683   1.261       .  A
C1685      C1690   1.390   1_455  A
C1687      C1688   1.379   1_554  A
C1687      N1694   1.429       .  S
C1688      C1689   1.408   1_455  A
C1688      H1693   1.081       .  S
C1689      C1690   1.399       .  A
C1690      N1691   1.428       .  S
N1691      O1695   1.262       .  A
N1691      O1696   1.262       .  A
N1694      O1697   1.262       .  A
C1699      C1700   1.412       .  A
C1699      C1704   1.407       .  A
C1699      H1706   1.082       .  S
C1700      C1701   1.402       .  A
C1701      C1702   1.402       .  A
C1701      N1708   1.428       .  S
C1702      C1703   1.416       .  A
C1702      H1707   1.082       .  S
C1703      C1704   1.409       .  A
C1704      N1705   1.428       .  S
N1705      O1709   1.262       .  A
N1705      O1710   1.262       .  A
N1708      O1712   1.262       .  A
C1713      C1714   1.416   1_565  A
C1713      C1718   1.410       .  A
C1713      H1720   1.082       .  S
C1714      C1715   1.407       .  A
C1715      C1716   1.413       .  A
C1715      N1722   1.427       .  S
C1716      C1717   1.420   1_545  A
C1716      H1721   1.081       .  S
C1717      C1718   1.413       .  A
C1718      N1719   1.427       .  S
N1719      O1723   1.262       .  A
N1719      O1724   1.261       .  A
N1722      O1726   1.262       .  A
N1722      O1725   1.262       .  A
C1727      C1728   1.397       .  A
C1727      C1732   1.403       .  A
C1727      H1734   1.082       .  S
C1729      C1730   1.406       .  A
C1729      N1736   1.428       .  S
C1730      C1731   1.399       .  A
C1730      H1735   1.083       .  S
C1732      N1733   1.426       .  S
N1733      O1737   1.262       .  A
N1733      O1738   1.261       .  A
N1736      O1740   1.262       .  A
N1736      O1739   1.262       .  A
C1741      C1746   1.397       .  A
C1741      H1748   1.083       .  S
C1742      C1743   1.406   1_544  A
C1743      C1744   1.391       .  A
C1743      N1750   1.429       .  S
C1744      H1749   1.081       .  S
C1745      C1746   1.412   1_556  A
C1746      N1747   1.425       .  S
N1747      O1751   1.261       .  A
N1747      O1752   1.262       .  A
N1750      O1754   1.261       .  A
N1750      O1753   1.262       .  A
C1755      C1756   1.416   1_556  A
C1755      C1760   1.414       .  A
C1755      H1762   1.082       .  S
C1756      C1757   1.415       .  A
C1757      C1758   1.418   1_554  A
C1757      N1764   1.428       .  S
C1758      C1759   1.417       .  A
C1758      H1763   1.082       .  S
C1759      C1760   1.412       .  A
C1760      N1761   1.428       .  S
N1761      O1765   1.262       .  A
N1761      O1766   1.262       .  A
N1764      O1768   1.262       .  A
N1764      O1767   1.262       .  A
C1769      C1770   1.397       .  A
C1769      C1774   1.405       .  A
C1769      H1776   1.082       .  S
C1770      C1771   1.427       .  A
C1771      C1772   1.428   1_554  A
C1771      N1778   1.428   1_554  S
C1772      C1773   1.411       .  A
C1772      H1777   1.081       .  S
C1773      C1774   1.431   1_556  A
C1774      N1775   1.424       .  S
N1775      O1779   1.262       .  A
N1775      O1780   1.262       .  A
N1778      O1782   1.261   1_556  A
N1778      O1781   1.260       .  A
C1783      C1784   1.401       .  A
C1783      C1788   1.379       .  A
C1783      H1790   1.083       .  S
C1784      C1785   1.408       .  A
C1785      C1786   1.386   1_556  A
C1785      N1792   1.429       .  S
C1786      C1787   1.404       .  A
C1786      H1791   1.082       .  S
C1787      C1788   1.408   1_554  A
C1788      N1789   1.426       .  S
N1789      O1793   1.263   1_556  A
N1789      O1794   1.261       .  A
N1792      O1796   1.262       .  A
N1792      O1795   1.262   1_556  A
C1797      C1798   1.401       .  A
C1797      C1802   1.401       .  A
C1797      H1804   1.077       .  S
C1798      C1799   1.414       .  A
C1799      C1800   1.400       .  A
C1799      N1806   1.429       .  S
C1800      C1801   1.404       .  A
C1800      H1805   1.080       .  S
C1801      C1802   1.419       .  A
C1802      N1803   1.429       .  S
N1803      O1807   1.262       .  A
N1803      O1808   1.262       .  A
N1806      O1810   1.262       .  A
N1806      O1809   1.262       .  A
C1811      C1812   1.394       .  A
C1811      C1816   1.390       .  A
C1811      H1818   1.083       .  S
C1812      C1813   1.410       .  A
C1813      C1814   1.399       .  A
C1813      N1820   1.428       .  S
C1814      C1815   1.407       .  A
C1814      H1819   1.082       .  S
C1815      C1816   1.417       .  A
C1816      N1817   1.424       .  S
N1817      O1821   1.258       .  A
N1817      O1822   1.259       .  A
N1820      O1824   1.262       .  A
N1820      O1823   1.262       .  A
C1825      C1826   1.403   1_565  A
C1825      C1830   1.397       .  A
C1825      H1832   1.081       .  S
C1826      C1827   1.419       .  A
C1827      C1828   1.393       .  A
C1827      N1834   1.429       .  S
C1828      C1829   1.395   1_545  A
C1828      H1833   1.082       .  S
C1829      C1830   1.410       .  A
C1830      N1831   1.428       .  S
N1831      O1835   1.260       .  A
N1831      O1836   1.261       .  A
N1834      O1838   1.262       .  A
N1834      O1837   1.261       .  A
C1839      C1840   1.401   1_565  A
C1839      C1844   1.397       .  A
C1839      H1846   1.083       .  S
C1840      C1841   1.413       .  A
C1841      C1842   1.399   1_545  A
C1841      N1848   1.429       .  S
C1842      C1843   1.400       .  A
C1842      H1847   1.084       .  S
C1843      C1844   1.410       .  A
C1844      N1845   1.428       .  S
N1845      O1849   1.261       .  A
N1845      O1850   1.261       .  A
N1848      O1852   1.262       .  A
N1848      O1851   1.262       .  A
C1853      C1854   1.405       .  A
C1853      C1858   1.413       .  A
C1853      H1860   1.082       .  S
C1854      C1855   1.424       .  A
C1855      C1856   1.404       .  A
C1855      N1862   1.423       .  S
C1856      C1857   1.395       .  A
C1856      H1861   1.083       .  S
C1857      C1858   1.419       .  A
C1858      N1859   1.426       .  S
N1859      O1863   1.259       .  A
N1859      O1864   1.262       .  A
N1862      O1866   1.262       .  A
N1862      O1865   1.260       .  A
C1867      C1868   1.413   1_556  A
C1867      C1872   1.417       .  A
C1867      H1874   1.081       .  S
C1868      C1869   1.417       .  A
C1869      C1870   1.423   1_554  A
C1869      N1876   1.429       .  S
C1870      C1871   1.417       .  A
C1870      H1875   1.078       .  S
C1871      C1872   1.420       .  A
C1872      N1873   1.428       .  S
N1873      O1877   1.262       .  A
N1873      O1878   1.261       .  A
N1876      O1880   1.261       .  A
N1876      O1879   1.262       .  A
C1881      C1882   1.402       .  A
C1881      C1886   1.392   1_556  A
C1881      H1888   1.082       .  S
C1882      C1883   1.413   1_565  A
C1883      C1884   1.388   1_556  A
C1883      N1890   1.430       .  S
C1884      C1885   1.399       .  A
C1884      H1889   1.082       .  S
C1885      C1886   1.413   1_545  A
C1886      N1887   1.430       .  S
N1887      O1891   1.262       .  A
N1887      O1892   1.262       .  A
N1890      O1894   1.262       .  A
N1890      O1893   1.262       .  A
C1895      C1896   1.421       .  A
C1895      C1900   1.422       .  A
C1895      H1902   1.083       .  S
C1896      C1897   1.421       .  A
C1897      C1898   1.413       .  A
C1897      N1904   1.428       .  S
C1898      C1899   1.409       .  A
C1898      H1903   1.081       .  S
C1899      C1900   1.411       .  A
C1900      N1901   1.429       .  S
N1901      O1905   1.262       .  A
N1901      O1906   1.262       .  A
N1904      O1908   1.262       .  A
N1904      O1907   1.262       .  A
C1909      C1910   1.401       .  A
C1909      C1914   1.388       .  A
C1909      H1916   1.083       .  S
C1910      C1911   1.410       .  A
C1911      C1912   1.392       .  A
C1911      N1918   1.431       .  S
C1912      C1913   1.408       .  A
C1912      H1917   1.084       .  S
C1913      C1914   1.411       .  A
C1914      N1915   1.428       .  S
N1915      O1919   1.261       .  A
N1915      O1920   1.262       .  A
N1918      O1922   1.262       .  A
N1918      O1921   1.262       .  A
C1923      C1924   1.397       .  A
C1923      C1928   1.396       .  A
C1923      H1930   1.082       .  S
C1924      C1925   1.411       .  A
C1925      C1926   1.397       .  A
C1925      N1932   1.429       .  S
C1926      C1927   1.402       .  A
C1926      H1931   1.082       .  S
C1927      C1928   1.416       .  A
C1928      N1929   1.429       .  S
N1929      O1933   1.262       .  A
N1929      O1934   1.262       .  A
N1932      O1936   1.262       .  A
N1932      O1935   1.262       .  A
C1937      C1938   1.405       .  A
C1937      C1942   1.401       .  A
C1937      H1944   1.082       .  S
C1938      C1939   1.409       .  A
C1939      C1940   1.394       .  A
C1939      N1946   1.428       .  S
C1940      C1941   1.404       .  A
C1940      H1945   1.084       .  S
C1941      C1942   1.410       .  A
C1942      N1943   1.429       .  S
N1943      O1947   1.262       .  A
N1943      O1948   1.262       .  A
N1946      O1950   1.262       .  A
N1946      O1949   1.262       .  A
C1951      C1952   1.420       .  A
C1951      C1956   1.408       .  A
C1951      H1958   1.082       .  S
C1952      C1953   1.401       .  A
C1953      C1954   1.403       .  A
C1953      N1960   1.428       .  S
C1954      C1955   1.424       .  A
C1954      H1959   1.081       .  S
C1955      C1956   1.406       .  A
C1956      N1957   1.428       .  S
N1957      O1961   1.262       .  A
N1957      O1962   1.262       .  A
N1960      O1964   1.262       .  A
N1960      O1963   1.262       .  A
C1965      C1966   1.401   1_545  A
C1965      C1970   1.402       .  A
C1965      H1972   1.081       .  S
C1966      C1967   1.411       .  A
C1967      C1968   1.386       .  A
C1967      N1974   1.418       .  S
C1968      C1969   1.389   1_565  A
C1968      H1973   1.083       .  S
C1969      C1970   1.414       .  A
C1970      N1971   1.427       .  S
N1971      O1975   1.262       .  A
N1971      O1976   1.262       .  A
N1974      O1978   1.262       .  A
N1974      O1977   1.261       .  A
C1979      C1980   1.413       .  A
C1979      C1984   1.396   1_545  A
C1979      H1986   1.080       .  S
C1980      C1981   1.405   1_545  A
C1981      C1982   1.398       .  A
C1981      N1988   1.428       .  S
C1982      C1983   1.411       .  A
C1982      H1987   1.081       .  S
C1983      C1984   1.407       .  A
C1984      N1985   1.430   1_565  S
N1985      O1989   1.262       .  A
N1985      O1990   1.262   1_545  A
N1988      O1992   1.262       .  A
N1988      O1991   1.262   1_565  A
C1993      C1994   1.420   1_545  A
C1993      C1998   1.406       .  A
C1993      H2000   1.082       .  S
C1994      C1995   1.406       .  A
C1995      C1996   1.407       .  A
C1995      N2002   1.428       .  S
C1996      C1997   1.418   1_565  A
C1996      H2001   1.082       .  S
C1997      C1998   1.404       .  A
C1998      N1999   1.429       .  S
N1999      O2003   1.261       .  A
N1999      O2004   1.262       .  A
N2002      O2006   1.262       .  A
N2002      O2005   1.262       .  A
C2007      C2008   1.404       .  A
C2007      C2012   1.408       .  A
C2007      H2014   1.082       .  S
C2008      C2009   1.415       .  A
C2009      C2010   1.399       .  A
C2009      N2016   1.416       .  S
C2010      C2011   1.393       .  A
C2010      H2015   1.082       .  S
C2011      C2012   1.421       .  A
C2012      N2013   1.428       .  S
N2013      O2017   1.262       .  A
N2013      O2018   1.262       .  A
N2016      O2020   1.262       .  A
N2016      O2019   1.261       .  A
C2021      C2022   1.404       .  A
C2021      C2026   1.412       .  A
C2021      H2028   1.082       .  S
C2022      C2023   1.425       .  A
C2023      C2024   1.410       .  A
C2023      N2030   1.428       .  S
C2024      C2025   1.402       .  A
C2024      H2029   1.082       .  S
C2025      C2026   1.426       .  A
C2026      N2027   1.428       .  S
N2027      O2031   1.261       .  A
N2027      O2032   1.262       .  A
N2030      O2034   1.262       .  A
N2030      O2033   1.262       .  A
C2035      C2036   1.402       .  A
C2035      C2040   1.386       .  A
C2035      H2042   1.076       .  S
C2036      C2037   1.407   1_545  A
C2037      C2038   1.390       .  A
C2037      N2044   1.429       .  S
C2038      C2039   1.403       .  A
C2038      H2043   1.080       .  S
C2039      C2040   1.408   1_565  A
C2040      N2041   1.430       .  S
N2041      O2045   1.262       .  A
N2041      O2046   1.262       .  A
N2044      O2048   1.262       .  A
N2044      O2047   1.262       .  A
