geometry optimzed in LAMMPS
_audit_creation_date              2020-12-01 
_audit_creation_method            'lammps2cif' 
_symmetry_space_group_name_H-M    'P1' 
_symmetry_Int_Tables_number       1 
_symmetry_cell_setting            triclinic 
loop_ 
_symmetry_equiv_pos_as_xyz 
  x,y,z 
_cell_length_a                    45.91040552 
_cell_length_b                    37.22834284420159 
_cell_length_c                    49.27994231310809 
_cell_angle_alpha                 89.98393409714048 
_cell_angle_beta                  107.76685729149868 
_cell_angle_gamma                 90.00279202772796 
loop_ 
_atom_site_label 
_atom_site_type_symbol 
_atom_site_fract_x 
_atom_site_fract_y 
_atom_site_fract_z 
_atom_site_charge 
Fe1        Fe  0.38711978  0.58676593  0.37861265     1.65800
Fe2        Fe  0.33208019  0.52404999  0.37594812     1.73200
Fe3        Fe  0.31289941  0.60401138  0.34073596     1.54400
O4          O  0.32900176  0.65098687  0.36301076    -0.80100
O5          O  0.31057931  0.50979135  0.33409817    -0.78400
O6          O  0.37888131  0.64110755  0.37935011    -0.82600
O7          O  0.38763466  0.59168717  0.33692591    -0.77500
O8          O  0.28165824  0.59784972  0.36341269    -0.79200
O9          O  0.37025245  0.49587598  0.37349930    -0.82000
C10         C  0.36714827  0.60365642  0.31505191     0.98800
C11         C  0.35623521  0.66208865  0.37323441     1.06200
O12         O  0.34396520  0.57162978  0.36520624    -1.11000
O13         O  0.35270414  0.53677181  0.41847135    -0.73400
O14         O  0.38635030  0.58176305  0.42040641    -0.76900
O15         O  0.34017204  0.61207491  0.31471579    -0.77600
C16         C  0.37173656  0.56048177  0.43198141     0.97700
O17         O  0.40660867  0.53666483  0.38011611    -0.75500
O18         O  0.29073948  0.54174754  0.37951154    -0.80700
C19         C  0.29459596  0.52871437  0.31345273     1.00300
C20         C  0.27420928  0.56966966  0.37426589     1.06200
O21         O  0.29251657  0.56258774  0.31423697    -0.76400
C22         C  0.39774467  0.50449484  0.37699640     1.04500
Fe23       Fe  0.36564242  0.58652944  0.12298548     1.65800
Fe24       Fe  0.42073508  0.52383478  0.12572447     1.73200
Fe25       Fe  0.43986209  0.60383901  0.16082378     1.54400
O26         O  0.42371818  0.65077830  0.13852114    -0.80100
O27         O  0.44218638  0.50963228  0.16760394    -0.78400
O28         O  0.37384593  0.64087603  0.12209522    -0.82600
O29         O  0.36513030  0.59159544  0.16466149    -0.77500
O30         O  0.47105663  0.59771289  0.13810337    -0.79200
O31         O  0.38256414  0.49563922  0.12814550    -0.82000
C32         C  0.38562862  0.60354165  0.18652972     0.98800
C33         C  0.39649088  0.66186180  0.12822223     1.06200
O34         O  0.40880710  0.57142136  0.13640501    -1.11000
O35         O  0.40015420  0.53652110  0.08318252    -0.73400
O36         O  0.36639144  0.58139531  0.08119761    -0.76900
O37         O  0.41261986  0.61189018  0.18686788    -0.77600
C38         C  0.38106657  0.56017291  0.06964843     0.97700
O39         O  0.34621185  0.53641907  0.12163832    -0.75500
O40         O  0.46208743  0.54153916  0.12218580    -0.80700
C41         C  0.45819303  0.52858818  0.18820717     1.00300
C42         C  0.47855870  0.56950912  0.12733440     1.06200
O43         O  0.46030126  0.56245308  0.18735180    -0.76400
C44         C  0.35508575  0.50425044  0.12472366     1.04500
Fe45       Fe  0.11568116  0.41123883  0.12302673     1.65800
Fe46       Fe  0.17103168  0.47359627  0.12567384     1.73200
Fe47       Fe  0.18977692  0.39352256  0.16095517     1.54400
O48         O  0.16239511  0.38536436  0.18684673    -0.80100
O49         O  0.21221798  0.45550156  0.12206030    -0.78400
O50         O  0.11505520  0.40607006  0.16469111    -0.82600
O51         O  0.12372433  0.35686240  0.12205576    -0.77500
O52         O  0.21014382  0.43485333  0.18756640    -0.79200
O53         O  0.15036206  0.46102409  0.08316589    -0.82000
C54         C  0.14630842  0.33577807  0.12814930     0.98800
C55         C  0.13543449  0.39380426  0.18651368     1.06200
O56         O  0.15889944  0.42611417  0.13645548    -1.11000
O57         O  0.13297060  0.50212756  0.12807353    -0.73400
O58         O  0.09653456  0.46147182  0.12176178    -0.76900
O59         O  0.17357264  0.34672978  0.13848942    -0.77600
C60         C  0.10547221  0.49361681  0.12472653     0.97700
O61         O  0.11640783  0.41640061  0.08122879    -0.75500
O62         O  0.19265962  0.48776516  0.16751855    -0.80700
C63         C  0.22868065  0.42754023  0.12745731     1.00300
C64         C  0.20835200  0.46876594  0.18825924     1.06200
O65         O  0.22120574  0.39953536  0.13848926    -0.76400
C66         C  0.13114235  0.43751271  0.06965456     1.04500
Fe67       Fe  0.13711280  0.41123553  0.37861856     1.65800
Fe68       Fe  0.08180889  0.47359646  0.37606198     1.73200
Fe69       Fe  0.06300010  0.39355990  0.34075311     1.54400
O70         O  0.09037866  0.38536531  0.31485938    -0.80100
O71         O  0.04065941  0.45550912  0.37976655    -0.78400
O72         O  0.13769036  0.40620051  0.33693596    -0.82600
O73         O  0.12905483  0.35686263  0.37949429    -0.77500
O74         O  0.04267081  0.43491618  0.31413900    -0.79200
O75         O  0.10257409  0.46098389  0.41855547    -0.82000
C76         C  0.10647478  0.33578034  0.37346491     0.98800
C77         C  0.11731178  0.39387456  0.31514546     1.06200
O78         O  0.09389717  0.42612661  0.36524093    -1.11000
O79         O  0.11983854  0.50211628  0.37355930    -0.73400
O80         O  0.15628836  0.46146569  0.37996051    -0.76900
O81         O  0.07919579  0.34674763  0.36324121    -0.77600
C82         C  0.14734433  0.49360777  0.37694317     0.97700
O83         O  0.13642183  0.41626151  0.42043227    -0.75500
O84         O  0.06008152  0.48781337  0.33424165    -0.80700
C85         C  0.02413580  0.42760208  0.37430357     1.00300
C86         C  0.04441850  0.46883560  0.31348188     1.06200
O87         O  0.03154649  0.39962373  0.36319811    -0.76400
C88         C  0.12175603  0.43741154  0.43203928     1.04500
Fe89       Fe  0.38736476  0.91119261  0.12847788     1.65800
Fe90       Fe  0.33203632  0.97356788  0.12584946     1.73200
Fe91       Fe  0.31325520  0.89352664  0.09056623     1.54400
O92         O  0.34062038  0.88538616  0.06466005    -0.80100
O93         O  0.29084541  0.95548676  0.12946582    -0.78400
O94         O  0.38797479  0.90604482  0.08680871    -0.82600
O95         O  0.37930585  0.85681734  0.12944825    -0.77500
O96         O  0.29288956  0.93488424  0.06396774    -0.79200
O97         O  0.35270934  0.96095973  0.16835314    -0.82000
C98         C  0.35671660  0.83574190  0.12334783     0.98800
C99         C  0.36758454  0.89380489  0.06498833     1.06200
O100        O  0.34414997  0.92608946  0.11506159    -1.11000
O101        O  0.37010229  0.00208847  0.12344712    -0.73400
O102        O  0.40652569  0.96142024  0.12973673    -0.76900
O103        O  0.32945447  0.84670790  0.11301555    -0.77600
C104        C  0.39759569  0.99356988  0.12678073     0.97700
O105        O  0.38665608  0.91633263  0.17028141    -0.75500
O106        O  0.31041060  0.98777426  0.08400944    -0.80700
C107        C  0.27437535  0.92753316  0.12407696     1.00300
C108        C  0.29469954  0.96879546  0.06327409     1.06200
O109        O  0.28184196  0.89952794  0.11304967    -0.76400
C110        C  0.37193160  0.93744149  0.18186081     1.04500
Fe111      Fe  0.36597659  0.91119287  0.37289565     1.65800
Fe112      Fe  0.42127767  0.97356527  0.37546296     1.73200
Fe113      Fe  0.44008123  0.89351880  0.41079884     1.54400
O114        O  0.41267662  0.88529470  0.43666907    -0.80100
O115        O  0.46243744  0.95549130  0.37178162    -0.78400
O116        O  0.36537306  0.90614638  0.41457018    -0.82600
O117        O  0.37404893  0.85682124  0.37204031    -0.77500
O118        O  0.46038029  0.93486896  0.43741467    -0.79200
O119        O  0.40053415  0.96096297  0.33296813    -0.82000
C120        C  0.39663348  0.83574284  0.37807822     0.98800
C121        C  0.38574051  0.89380879  0.43636883     1.06200
O122        O  0.40918952  0.92608856  0.38628936    -1.11000
O123        O  0.38323640  0.00207557  0.37794159    -0.73400
O124        O  0.34678882  0.96142088  0.37152990    -0.76900
O125        O  0.42390964  0.84671457  0.38830773    -0.77600
C126        C  0.35572884  0.99356378  0.37454673     0.97700
O127        O  0.36669202  0.91623137  0.33108995    -0.75500
O128        O  0.44298574  0.98777090  0.41728433    -0.80700
C129        C  0.47897224  0.92759274  0.37726818     1.00300
C130        C  0.45863411  0.96878883  0.43805762     1.06200
O131        O  0.47156531  0.89961131  0.38838448    -0.76400
C132        C  0.38136150  0.93738859  0.31948507     1.04500
Fe133      Fe  0.13739646  0.08657607  0.12848386     1.65800
Fe134      Fe  0.08231950  0.02386192  0.12577318     1.73200
Fe135      Fe  0.06316975  0.10384700  0.09061442     1.54400
O136        O  0.07929672  0.15080878  0.11286953    -0.80100
O137        O  0.06090482  0.00963453  0.08389928    -0.78400
O138        O  0.12916826  0.14091539  0.12936919    -0.82600
O139        O  0.13791764  0.09167245  0.08680842    -0.77500
O140        O  0.03197896  0.09773116  0.11334241    -0.79200
O141        O  0.12051436  0.99567635  0.12340842    -0.82000
C142        C  0.11741332  0.10358254  0.06492308     0.98800
C143        C  0.10651763  0.16189606  0.12320212     1.06200
O144        O  0.09423660  0.07145017  0.11506382    -1.11000
O145        O  0.10286464  0.03657239  0.16830810    -0.73400
O146        O  0.13665010  0.08141724  0.17027494    -0.76900
O147        O  0.09040799  0.11188741  0.06456455    -0.77600
C148        C  0.12196311  0.06021107  0.18183253     0.97700
O149        O  0.15684260  0.03647375  0.12983486    -0.75500
O150        O  0.04094694  0.04155076  0.12926777    -0.80700
C151        C  0.04487913  0.02857546  0.06328659     1.00300
C152        C  0.02447414  0.06952078  0.12411222     1.06200
O153        O  0.04274352  0.06243819  0.06412308    -0.76400
C154        C  0.14798453  0.00429849  0.12679822     1.04500
Fe155      Fe  0.11596500  0.08681483  0.37286754     1.65800
Fe156      Fe  0.17100018  0.02409277  0.37556500     1.73200
Fe157      Fe  0.19017920  0.10406042  0.41073652     1.54400
O158        O  0.17409212  0.15101783  0.38840955    -0.80100
O159        O  0.19252065  0.00984663  0.41742023    -0.78400
O160        O  0.12420688  0.14116041  0.37214530    -0.82600
O161        O  0.11544356  0.09170134  0.41455081    -0.77500
O162        O  0.22144910  0.09785980  0.38809282    -0.79200
O163        O  0.13283859  0.99592785  0.37805721    -0.82000
C164        C  0.13591847  0.10371084  0.43640986     0.98800
C165        C  0.14685681  0.16213335  0.37822787     1.06200
O166        O  0.15911879  0.07167543  0.38628227    -1.11000
O167        O  0.15035531  0.03680160  0.33303388    -0.73400
O168        O  0.11674933  0.08184139  0.33108020    -0.76900
O169        O  0.16288445  0.11216455  0.43673221    -0.77600
C170        C  0.13134303  0.06053326  0.31951370     0.97700
O171        O  0.09646812  0.03671237  0.37135022    -0.75500
O172        O  0.21233087  0.04178183  0.37196998    -0.80700
C173        C  0.20847567  0.02877495  0.43806700     1.00300
C174        C  0.22887951  0.06968642  0.37722757     1.06200
O175        O  0.21053643  0.06264991  0.43727557    -0.76400
C176        C  0.10533888  0.00454502  0.37452016     1.04500
C177        C  0.12615179  0.06352553  0.21178041    -0.16900
C178        C  0.12683711  0.06505383  0.23639941     0.07100
C179        C  0.12644059  0.06516900  0.26493053     0.09000
C180        C  0.12713487  0.06379498  0.28955770    -0.17800
C181        C  0.12418966  0.10690167  0.03856930    -0.16900
C182        C  0.12626507  0.10831994  0.01483694     0.07100
C183        C  0.12709907  0.10834490  0.48651310     0.09000
C184        C  0.12916153  0.10697204  0.46277536    -0.17800
C185        C  0.02775079  0.01170567  0.03737677    -0.16900
C186        C  0.01156085  0.00275337  0.01429933     0.07100
C187        C  0.49200574  0.99471005  0.48698587     0.09000
C188        C  0.47580148  0.98570471  0.46392999    -0.17800
C189        C  0.33316594  0.02103785  0.37386224    -0.16900
C190        C  0.31138454  0.04007705  0.37278994     0.07100
C191        C  0.28350783  0.05753437  0.37197212     0.09000
C192        C  0.25855006  0.06716224  0.37281077    -0.17800
C193        C  0.08276233  0.97710574  0.37385016    -0.16900
C194        C  0.06117348  0.95776713  0.37280619     0.07100
C195        C  0.03351945  0.93983270  0.37200710     0.09000
C196        C  0.00863253  0.92997666  0.37285370    -0.17800
C197        C  0.22561656  0.01186413  0.46396066    -0.16900
C198        C  0.24180911  0.00284825  0.48702287     0.07100
C199        C  0.26135473  0.99473685  0.01432872     0.09000
C200        C  0.27754361  0.98570431  0.03738707    -0.17800
C201        C  0.37892904  0.89020848  0.46270190    -0.16900
C202        C  0.37697857  0.88858982  0.48648005     0.07100
C203        C  0.37635538  0.88859028  0.01488320     0.09000
C204        C  0.37440493  0.89020820  0.03866065    -0.17800
C205        C  0.37621020  0.93415796  0.21181413    -0.16900
C206        C  0.37687505  0.93270688  0.23642346     0.07100
C207        C  0.37640272  0.93268338  0.26491996     0.09000
C208        C  0.37707411  0.93410668  0.28953136    -0.17800
C209        C  0.42015759  0.02104638  0.12747732    -0.16900
C210        C  0.44194940  0.04007250  0.12856528     0.07100
C211        C  0.46984425  0.05748422  0.12939147     0.09000
C212        C  0.99481203  0.06705430  0.12854523    -0.17800
C213        C  0.24472322  0.92985829  0.12850357    -0.16900
C214        C  0.21982168  0.93964795  0.12934539     0.07100
C215        C  0.19214517  0.95752765  0.12852779     0.09000
C216        C  0.17054801  0.97685152  0.12746985    -0.17800
C217        C  0.14057748  0.20025206  0.37535119    -0.16900
C218        C  0.13224258  0.23117736  0.37540315     0.07100
C219        C  0.12128819  0.26679672  0.37640990     0.09000
C220        C  0.11288991  0.29769924  0.37642998    -0.17800
C221        C  0.11276352  0.20001518  0.12615026    -0.16900
C222        C  0.12095174  0.23100254  0.12612209     0.07100
C223        C  0.13168582  0.26672802  0.12512551     0.09000
C224        C  0.13993378  0.29769402  0.12512513    -0.17800
C225        C  0.12605600  0.43412587  0.46199663    -0.16900
C226        C  0.12672272  0.43271711  0.48660832     0.07100
C227        C  0.12623481  0.43276641  0.01510072     0.09000
C228        C  0.12688314  0.43423341  0.03970490    -0.17800
C229        C  0.12860850  0.39021074  0.21284018    -0.16900
C230        C  0.12665941  0.38861046  0.23661940     0.07100
C231        C  0.12604553  0.38863785  0.26502530     0.09000
C232        C  0.12410777  0.39027370  0.28880650    -0.17800
C233        C  0.36308177  0.79765306  0.12634959    -0.16900
C234        C  0.37132005  0.76668733  0.12632604     0.07100
C235        C  0.38204631  0.73096461  0.12530744     0.09000
C236        C  0.39023464  0.69997972  0.12527040    -0.17800
C237        C  0.47532603  0.51173396  0.21412971    -0.16900
C238        C  0.49150730  0.50279276  0.23721784     0.07100
C239        C  0.01104658  0.49475793  0.26454293     0.09000
C240        C  0.02724382  0.48575462  0.28760624    -0.17800
C241        C  0.25833519  0.42985244  0.12303533    -0.16900
C242        C  0.28324349  0.43962384  0.12219815     0.07100
C243        C  0.31092905  0.45748434  0.12301791     0.09000
C244        C  0.33252985  0.47680029  0.12407030    -0.17800
C245        C  0.00822103  0.56704951  0.12290139    -0.16900
C246        C  0.03319718  0.55749559  0.12206920     0.07100
C247        C  0.06110737  0.54010718  0.12291773     0.09000
C248        C  0.08291047  0.52109450  0.12402130    -0.17800
C249        C  0.36252034  0.70020474  0.37612799    -0.16900
C250        C  0.37086234  0.73113191  0.37609879     0.07100
C251        C  0.38182446  0.76675559  0.37511770     0.09000
C252        C  0.39022506  0.79766080  0.37511136    -0.17800
C253        C  0.22550859  0.48565226  0.21415108    -0.16900
C254        C  0.24169773  0.49467361  0.23720968     0.07100
C255        C  0.26124697  0.50278254  0.26451289     0.09000
C256        C  0.27744563  0.51180055  0.28756936    -0.17800
C257        C  0.37886340  0.60685181  0.21288758    -0.16900
C258        C  0.37679409  0.60826312  0.23662132     0.07100
C259        C  0.37596508  0.60828383  0.26494625     0.09000
C260        C  0.37390536  0.60691192  0.28868528    -0.17800
C261        C  0.37688210  0.56348690  0.03970001    -0.16900
C262        C  0.37620919  0.56501675  0.01508375     0.07100
C263        C  0.37662427  0.56513131  0.48655816     0.09000
C264        C  0.37594220  0.56375263  0.46193487    -0.17800
C265        C  0.99448021  0.42997129  0.37872690    -0.16900
C266        C  0.46958722  0.43980952  0.37956567     0.07100
C267        C  0.44192112  0.45772514  0.37874668     0.09000
C268        C  0.42032327  0.47705482  0.37768410    -0.17800
C269        C  0.24453841  0.56716337  0.37868164    -0.16900
C270        C  0.21957415  0.55755513  0.37951608     0.07100
C271        C  0.19168846  0.54011630  0.37869224     0.09000
C272        C  0.16990257  0.52108412  0.37761891    -0.17800
Fe273      Fe  0.38711976  0.58676593  0.87861264     1.65800
Fe274      Fe  0.33208018  0.52405002  0.87594809     1.73200
Fe275      Fe  0.31289942  0.60401137  0.84073596     1.54400
O276        O  0.32900175  0.65098686  0.86301073    -0.80100
O277        O  0.31057928  0.50979141  0.83409812    -0.78400
O278        O  0.37888130  0.64110754  0.87935012    -0.82600
O279        O  0.38763463  0.59168711  0.83692590    -0.77500
O280        O  0.28165826  0.59784974  0.86341268    -0.79200
O281        O  0.37025241  0.49587597  0.87349922    -0.82000
C282        C  0.36714827  0.60365638  0.81505193     0.98800
C283        C  0.35623521  0.66208866  0.87323443     1.06200
O284        O  0.34396520  0.57162980  0.86520626    -1.11000
O285        O  0.35270412  0.53677180  0.91847133    -0.73400
O286        O  0.38635027  0.58176303  0.92040639    -0.76900
O287        O  0.34017205  0.61207490  0.81471579    -0.77600
C288        C  0.37173655  0.56048175  0.93198136     0.97700
O289        O  0.40660864  0.53666481  0.88011614    -0.75500
O290        O  0.29073946  0.54174757  0.87951153    -0.80700
C291        C  0.29459597  0.52871439  0.81345275     1.00300
C292        C  0.27420928  0.56966971  0.87426590     1.06200
O293        O  0.29251656  0.56258778  0.81423694    -0.76400
C294        C  0.39774467  0.50449484  0.87699640     1.04500
Fe295      Fe  0.36564245  0.58652942  0.62298550     1.65800
Fe296      Fe  0.42073511  0.52383476  0.62572453     1.73200
Fe297      Fe  0.43986211  0.60383900  0.66082380     1.54400
O298        O  0.42371819  0.65077832  0.63852121    -0.80100
O299        O  0.44218644  0.50963231  0.66760401    -0.78400
O300        O  0.37384595  0.64087599  0.62209522    -0.82600
O301        O  0.36513030  0.59159543  0.66466149    -0.77500
O302        O  0.47105664  0.59771292  0.63810339    -0.79200
O303        O  0.38256421  0.49563919  0.62814562    -0.82000
C304        C  0.38562866  0.60354163  0.68652975     0.98800
C305        C  0.39649087  0.66186184  0.62822224     1.06200
O306        O  0.40880712  0.57142135  0.63640502    -1.11000
O307        O  0.40015422  0.53652101  0.58318256    -0.73400
O308        O  0.36639148  0.58139525  0.58119764    -0.76900
O309        O  0.41261986  0.61189013  0.68686791    -0.77600
C310        C  0.38106658  0.56017283  0.56964843     0.97700
O311        O  0.34621192  0.53641904  0.62163835    -0.75500
O312        O  0.46208743  0.54153919  0.62218584    -0.80700
C313        C  0.45819308  0.52858825  0.68820719     1.00300
C314        C  0.47855873  0.56950912  0.62733441     1.06200
O315        O  0.46030134  0.56245308  0.68735186    -0.76400
C316        C  0.35508580  0.50425039  0.62472373     1.04500
Fe317      Fe  0.11568113  0.41123884  0.62302672     1.65800
Fe318      Fe  0.17103166  0.47359627  0.62567384     1.73200
Fe319      Fe  0.18977693  0.39352258  0.66095517     1.54400
O320        O  0.16239517  0.38536445  0.68684677    -0.80100
O321        O  0.21221798  0.45550158  0.62206034    -0.78400
O322        O  0.11505520  0.40606996  0.66469110    -0.82600
O323        O  0.12372436  0.35686242  0.62205566    -0.77500
O324        O  0.21014386  0.43485337  0.68756639    -0.79200
O325        O  0.15036209  0.46102413  0.58316590    -0.82000
C326        C  0.14630840  0.33577801  0.62814928     0.98800
C327        C  0.13543452  0.39380425  0.68651370     1.06200
O328        O  0.15889941  0.42611418  0.63645549    -1.11000
O329        O  0.13297058  0.50212760  0.62807349    -0.73400
O330        O  0.09653456  0.46147186  0.62176185    -0.76900
O331        O  0.17357267  0.34672979  0.63848950    -0.77600
C332        C  0.10547221  0.49361685  0.62472654     0.97700
O333        O  0.11640776  0.41640074  0.58122880    -0.75500
O334        O  0.19265959  0.48776517  0.66751854    -0.80700
C335        C  0.22868064  0.42754025  0.62745729     1.00300
C336        C  0.20835195  0.46876595  0.68825919     1.06200
O337        O  0.22120569  0.39953533  0.63848920    -0.76400
C338        C  0.13114231  0.43751280  0.56965452     1.04500
Fe339      Fe  0.13711281  0.41123553  0.87861855     1.65800
Fe340      Fe  0.08180891  0.47359647  0.87606197     1.73200
Fe341      Fe  0.06300009  0.39355990  0.84075307     1.54400
O342        O  0.09037864  0.38536538  0.81485931    -0.80100
O343        O  0.04065944  0.45550911  0.87976654    -0.78400
O344        O  0.13769036  0.40620050  0.83693595    -0.82600
O345        O  0.12905482  0.35686260  0.87949428    -0.77500
O346        O  0.04267080  0.43491620  0.81413900    -0.79200
O347        O  0.10257410  0.46098391  0.91855548    -0.82000
C348        C  0.10647474  0.33578031  0.87346485     0.98800
C349        C  0.11731180  0.39387465  0.81514543     1.06200
O350        O  0.09389717  0.42612663  0.86524090    -1.11000
O351        O  0.11983856  0.50211628  0.87355928    -0.73400
O352        O  0.15628839  0.46146569  0.87996048    -0.76900
O353        O  0.07919578  0.34674762  0.86324114    -0.77600
C354        C  0.14734435  0.49360778  0.87694315     0.97700
O355        O  0.13642184  0.41626154  0.92043229    -0.75500
O356        O  0.06008155  0.48781338  0.83424162    -0.80700
C357        C  0.02413583  0.42760206  0.87430356     1.00300
C358        C  0.04441856  0.46883561  0.81348192     1.06200
O359        O  0.03154649  0.39962373  0.86319809    -0.76400
C360        C  0.12175605  0.43741156  0.93203925     1.04500
Fe361      Fe  0.38736477  0.91119258  0.62847789     1.65800
Fe362      Fe  0.33203634  0.97356789  0.62584945     1.73200
Fe363      Fe  0.31325522  0.89352669  0.59056626     1.54400
O364        O  0.34062039  0.88538619  0.56466007    -0.80100
O365        O  0.29084543  0.95548679  0.62946582    -0.78400
O366        O  0.38797482  0.90604479  0.58680874    -0.82600
O367        O  0.37930588  0.85681732  0.62944828    -0.77500
O368        O  0.29288956  0.93488431  0.56396776    -0.79200
O369        O  0.35270937  0.96095978  0.66835312    -0.82000
C370        C  0.35671660  0.83574185  0.62334782     0.98800
C371        C  0.36758457  0.89380486  0.56498832     1.06200
O372        O  0.34414999  0.92608947  0.61506161    -1.11000
O373        O  0.37010231  0.00208843  0.62344707    -0.73400
O374        O  0.40652571  0.96142019  0.62973677    -0.76900
O375        O  0.32945449  0.84670792  0.61301554    -0.77600
C376        C  0.39759570  0.99356983  0.62678073     0.97700
O377        O  0.38665607  0.91633263  0.67028141    -0.75500
O378        O  0.31041060  0.98777431  0.58400942    -0.80700
C379        C  0.27437537  0.92753320  0.62407696     1.00300
C380        C  0.29469955  0.96879549  0.56327413     1.06200
O381        O  0.28184200  0.89952796  0.61304971    -0.76400
C382        C  0.37193162  0.93744153  0.68186081     1.04500
Fe383      Fe  0.36597656  0.91119288  0.87289562     1.65800
Fe384      Fe  0.42127767  0.97356528  0.87546296     1.73200
Fe385      Fe  0.44008119  0.89351881  0.91079887     1.54400
O386        O  0.41267656  0.88529469  0.93666907    -0.80100
O387        O  0.46243742  0.95549126  0.87178160    -0.78400
O388        O  0.36537301  0.90614637  0.91457015    -0.82600
O389        O  0.37404891  0.85682127  0.87204031    -0.77500
O390        O  0.46038023  0.93486892  0.93741474    -0.79200
O391        O  0.40053417  0.96096304  0.83296814    -0.82000
C392        C  0.39663345  0.83574285  0.87807825     0.98800
C393        C  0.38574042  0.89380878  0.93636876     1.06200
O394        O  0.40918950  0.92608856  0.88628934    -1.11000
O395        O  0.38323642  0.00207562  0.87794164    -0.73400
O396        O  0.34678884  0.96142092  0.87152989    -0.76900
O397        O  0.42390963  0.84671458  0.88830777    -0.77600
C398        C  0.35572887  0.99356384  0.87454675     0.97700
O399        O  0.36669204  0.91623142  0.83108994    -0.75500
O400        O  0.44298580  0.98777086  0.91728434    -0.80700
C401        C  0.47897227  0.92759273  0.87726824     1.00300
C402        C  0.45863409  0.96878882  0.93805761     1.06200
O403        O  0.47156531  0.89961130  0.88838457    -0.76400
C404        C  0.38136152  0.93738865  0.81948507     1.04500
Fe405      Fe  0.13739645  0.08657607  0.62848384     1.65800
Fe406      Fe  0.08231948  0.02386194  0.62577319     1.73200
Fe407      Fe  0.06316974  0.10384700  0.59061440     1.54400
O408        O  0.07929670  0.15080875  0.61286949    -0.80100
O409        O  0.06090478  0.00963450  0.58389929    -0.78400
O410        O  0.12916827  0.14091538  0.62936911    -0.82600
O411        O  0.13791761  0.09167239  0.58680839    -0.77500
O412        O  0.03197893  0.09773114  0.61334234    -0.79200
O413        O  0.12051432  0.99567637  0.62340844    -0.82000
C414        C  0.11741332  0.10358252  0.56492310     0.98800
C415        C  0.10651765  0.16189611  0.62320208     1.06200
O416        O  0.09423658  0.07145019  0.61506382    -1.11000
O417        O  0.10286464  0.03657245  0.66830811    -0.73400
O418        O  0.13665006  0.08141733  0.67027491    -0.76900
O419        O  0.09040799  0.11188741  0.56456452    -0.77600
C420        C  0.12196310  0.06021115  0.68183252     0.97700
O421        O  0.15684259  0.03647371  0.62983487    -0.75500
O422        O  0.04094697  0.04155078  0.62926781    -0.80700
C423        C  0.04487912  0.02857540  0.56328657     1.00300
C424        C  0.02447411  0.06952077  0.62411220     1.06200
O425        O  0.04274357  0.06243818  0.56412308    -0.76400
C426        C  0.14798452  0.00429849  0.62679823     1.04500
Fe427      Fe  0.11596502  0.08681478  0.87286754     1.65800
Fe428      Fe  0.17100019  0.02409273  0.87556498     1.73200
Fe429      Fe  0.19017916  0.10406041  0.91073648     1.54400
O430        O  0.17409205  0.15101781  0.88840948    -0.80100
O431        O  0.19252063  0.00984662  0.91742019    -0.78400
O432        O  0.12420683  0.14116034  0.87214526    -0.82600
O433        O  0.11544352  0.09170134  0.91455077    -0.77500
O434        O  0.22144905  0.09785980  0.88809277    -0.79200
O435        O  0.13283859  0.99592784  0.87805720    -0.82000
C436        C  0.13591845  0.10371086  0.93640988     0.98800
C437        C  0.14685677  0.16213331  0.87822782     1.06200
O438        O  0.15911880  0.07167538  0.88628225    -1.11000
O439        O  0.15035533  0.03680161  0.83303387    -0.73400
O440        O  0.11674932  0.08184135  0.83108021    -0.76900
O441        O  0.16288440  0.11216455  0.93673215    -0.77600
C442        C  0.13134305  0.06053323  0.81951371     0.97700
O443        O  0.09646813  0.03671237  0.87135021    -0.75500
O444        O  0.21233087  0.04178180  0.87196999    -0.80700
C445        C  0.20847568  0.02877492  0.93806701     1.00300
C446        C  0.22887950  0.06968642  0.87722756     1.06200
O447        O  0.21053640  0.06264991  0.93727555    -0.76400
C448        C  0.10533887  0.00454497  0.87452017     1.04500
C449        C  0.12615179  0.06352567  0.71178041    -0.16900
C450        C  0.12683712  0.06505399  0.73639939     0.07100
C451        C  0.12644062  0.06516904  0.76493055     0.09000
C452        C  0.12713490  0.06379498  0.78955769    -0.17800
C453        C  0.12418968  0.10690170  0.53856924    -0.16900
C454        C  0.12626507  0.10831995  0.51483699     0.07100
C455        C  0.12709906  0.10834493  0.98651316     0.09000
C456        C  0.12916153  0.10697206  0.96277531    -0.17800
C457        C  0.02775081  0.01170567  0.53737680    -0.16900
C458        C  0.01156085  0.00275331  0.51429927     0.07100
C459        C  0.49200574  0.99471003  0.98698584     0.09000
C460        C  0.47580153  0.98570471  0.96393002    -0.17800
C461        C  0.33316597  0.02103792  0.87386226    -0.16900
C462        C  0.31138461  0.04007718  0.87278998     0.07100
C463        C  0.28350785  0.05753444  0.87197212     0.09000
C464        C  0.25855006  0.06716225  0.87281076    -0.17800
C465        C  0.08276237  0.97710574  0.87385020    -0.16900
C466        C  0.06117343  0.95776707  0.87280622     0.07100
C467        C  0.03351946  0.93983275  0.87200713     0.09000
C468        C  0.00863246  0.92997667  0.87285377    -0.17800
C469        C  0.22561653  0.01186410  0.96396057    -0.16900
C470        C  0.24180916  0.00284812  0.98702290     0.07100
C471        C  0.26135474  0.99473693  0.51432882     0.09000
C472        C  0.27754354  0.98570439  0.53738704    -0.17800
C473        C  0.37892891  0.89020844  0.96270188    -0.16900
C474        C  0.37697849  0.88858979  0.98647996     0.07100
C475        C  0.37635544  0.88859028  0.51488318     0.09000
C476        C  0.37440496  0.89020815  0.53866072    -0.17800
C477        C  0.37621022  0.93415806  0.71181413    -0.16900
C478        C  0.37687508  0.93270699  0.73642348     0.07100
C479        C  0.37640276  0.93268352  0.76491997     0.09000
C480        C  0.37707414  0.93410681  0.78953138    -0.17800
C481        C  0.42015762  0.02104634  0.62747730    -0.16900
C482        C  0.44194939  0.04007246  0.62856521     0.07100
C483        C  0.46984427  0.05748419  0.62939139     0.09000
C484        C  0.99481205  0.06705429  0.62854517    -0.17800
C485        C  0.24472323  0.92985833  0.62850354    -0.16900
C486        C  0.21982169  0.93964800  0.62934535     0.07100
C487        C  0.19214516  0.95752768  0.62852775     0.09000
C488        C  0.17054797  0.97685149  0.62746981    -0.17800
C489        C  0.14057737  0.20025202  0.87535113    -0.16900
C490        C  0.13224248  0.23117730  0.87540309     0.07100
C491        C  0.12128808  0.26679668  0.87640983     0.09000
C492        C  0.11288983  0.29769920  0.87642991    -0.17800
C493        C  0.11276350  0.20001506  0.62615025    -0.16900
C494        C  0.12095179  0.23100262  0.62612212     0.07100
C495        C  0.13168580  0.26672789  0.62512557     0.09000
C496        C  0.13993381  0.29769410  0.62512519    -0.17800
C497        C  0.12605602  0.43412591  0.96199669    -0.16900
C498        C  0.12672275  0.43271710  0.98660825     0.07100
C499        C  0.12623473  0.43276647  0.51510065     0.09000
C500        C  0.12688307  0.43423352  0.53970495    -0.17800
C501        C  0.12860852  0.39021076  0.71284014    -0.16900
C502        C  0.12665937  0.38861054  0.73661939     0.07100
C503        C  0.12604550  0.38863801  0.76502524     0.09000
C504        C  0.12410777  0.39027388  0.78880648    -0.17800
C505        C  0.36308176  0.79765310  0.62634956    -0.16900
C506        C  0.37132008  0.76668727  0.62632599     0.07100
C507        C  0.38204628  0.73096467  0.62530736     0.09000
C508        C  0.39023462  0.69997966  0.62527036    -0.17800
C509        C  0.47532614  0.51173395  0.71412980    -0.16900
C510        C  0.49150727  0.50279281  0.73721780     0.07100
C511        C  0.01104661  0.49475791  0.76454303     0.09000
C512        C  0.02724379  0.48575464  0.78760618    -0.17800
C513        C  0.25833514  0.42985245  0.62303529    -0.16900
C514        C  0.28324352  0.43962383  0.62219813     0.07100
C515        C  0.31092904  0.45748432  0.62301792     0.09000
C516        C  0.33252990  0.47680030  0.62407034    -0.17800
C517        C  0.00822101  0.56704949  0.62290136    -0.16900
C518        C  0.03319717  0.55749561  0.62206916     0.07100
C519        C  0.06110736  0.54010720  0.62291770     0.09000
C520        C  0.08291046  0.52109454  0.62402129    -0.17800
C521        C  0.36252035  0.70020471  0.87612804    -0.16900
C522        C  0.37086241  0.73113192  0.87609887     0.07100
C523        C  0.38182444  0.76675559  0.87511778     0.09000
C524        C  0.39022502  0.79766086  0.87511143    -0.17800
C525        C  0.22550857  0.48565231  0.71415112    -0.16900
C526        C  0.24169766  0.49467355  0.73720961     0.07100
C527        C  0.26124699  0.50278251  0.76451295     0.09000
C528        C  0.27744556  0.51180054  0.78756930    -0.17800
C529        C  0.37886338  0.60685175  0.71288760    -0.16900
C530        C  0.37679407  0.60826303  0.73662134     0.07100
C531        C  0.37596509  0.60828374  0.76494629     0.09000
C532        C  0.37390537  0.60691187  0.78868530    -0.17800
C533        C  0.37688212  0.56348683  0.53970007    -0.16900
C534        C  0.37620918  0.56501672  0.51508372     0.07100
C535        C  0.37662431  0.56513127  0.98655811     0.09000
C536        C  0.37594223  0.56375258  0.96193490    -0.17800
C537        C  0.99448023  0.42997130  0.87872692    -0.16900
C538        C  0.46958720  0.43980949  0.87956566     0.07100
C539        C  0.44192109  0.45772508  0.87874666     0.09000
C540        C  0.42032326  0.47705481  0.87768410    -0.17800
C541        C  0.24453842  0.56716349  0.87868170    -0.16900
C542        C  0.21957416  0.55755519  0.87951613     0.07100
C543        C  0.19168848  0.54011631  0.87869227     0.09000
C544        C  0.16990257  0.52108414  0.87761891    -0.17800
Fe545      Fe  0.88711978  0.58676595  0.37861265     1.65800
Fe546      Fe  0.83208019  0.52405001  0.37594812     1.73200
Fe547      Fe  0.81289939  0.60401139  0.34073596     1.54400
O548        O  0.82900174  0.65098689  0.36301073    -0.80100
O549        O  0.81057930  0.50979136  0.33409817    -0.78400
O550        O  0.87888129  0.64110756  0.37935012    -0.82600
O551        O  0.88763462  0.59168719  0.33692589    -0.77500
O552        O  0.78165824  0.59784974  0.36341272    -0.79200
O553        O  0.87025243  0.49587598  0.37349930    -0.82000
C554        C  0.86714822  0.60365642  0.31505189     0.98800
C555        C  0.85623521  0.66208868  0.37323442     1.06200
O556        O  0.84396520  0.57162980  0.36520624    -1.11000
O557        O  0.85270413  0.53677183  0.41847135    -0.73400
O558        O  0.88635031  0.58176303  0.42040643    -0.76900
O559        O  0.84017200  0.61207491  0.31471577    -0.77600
C560        C  0.87173657  0.56048178  0.43198141     0.97700
O561        O  0.90660865  0.53666482  0.38011609    -0.75500
O562        O  0.79073946  0.54174754  0.37951153    -0.80700
C563        C  0.79459592  0.52871437  0.31345273     1.00300
C564        C  0.77420925  0.56966967  0.37426590     1.06200
O565        O  0.79251654  0.56258774  0.31423698    -0.76400
C566        C  0.89774468  0.50449484  0.37699640     1.04500
Fe567      Fe  0.86564240  0.58652944  0.12298548     1.65800
Fe568      Fe  0.92073508  0.52383477  0.12572448     1.73200
Fe569      Fe  0.93986208  0.60383902  0.16082379     1.54400
O570        O  0.92371817  0.65077832  0.13852115    -0.80100
O571        O  0.94218637  0.50963228  0.16760396    -0.78400
O572        O  0.87384592  0.64087601  0.12209521    -0.82600
O573        O  0.86513028  0.59159543  0.16466149    -0.77500
O574        O  0.97105661  0.59771289  0.13810339    -0.79200
O575        O  0.88256413  0.49563922  0.12814549    -0.82000
C576        C  0.88562861  0.60354165  0.18652972     0.98800
C577        C  0.89649087  0.66186180  0.12822223     1.06200
O578        O  0.90880708  0.57142137  0.13640501    -1.11000
O579        O  0.90015421  0.53652109  0.08318252    -0.73400
O580        O  0.86639147  0.58139533  0.08119761    -0.76900
O581        O  0.91261984  0.61189019  0.18686788    -0.77600
C582        C  0.88106660  0.56017290  0.06964843     0.97700
O583        O  0.84621183  0.53641906  0.12163832    -0.75500
O584        O  0.96208743  0.54153915  0.12218583    -0.80700
C585        C  0.95819303  0.52858818  0.18820718     1.00300
C586        C  0.97855873  0.56950910  0.12733441     1.06200
O587        O  0.96030125  0.56245308  0.18735182    -0.76400
C588        C  0.85508574  0.50425043  0.12472365     1.04500
Fe589      Fe  0.61568115  0.41123882  0.12302674     1.65800
Fe590      Fe  0.67103166  0.47359625  0.12567384     1.73200
Fe591      Fe  0.68977690  0.39352255  0.16095516     1.54400
O592        O  0.66239507  0.38536431  0.18684671    -0.80100
O593        O  0.71221795  0.45550153  0.12206028    -0.78400
O594        O  0.61505519  0.40607008  0.16469113    -0.82600
O595        O  0.62372431  0.35686237  0.12205576    -0.77500
O596        O  0.71014381  0.43485329  0.18756642    -0.79200
O597        O  0.65036203  0.46102407  0.08316589    -0.82000
C598        C  0.64630841  0.33577805  0.12814929     0.98800
C599        C  0.63543450  0.39380423  0.18651368     1.06200
O600        O  0.65889943  0.42611416  0.13645547    -1.11000
O601        O  0.63297057  0.50212755  0.12807354    -0.73400
O602        O  0.59653453  0.46147183  0.12176179    -0.76900
O603        O  0.67357262  0.34672979  0.13848940    -0.77600
C604        C  0.60547225  0.49361679  0.12472654     0.97700
O605        O  0.61640779  0.41640059  0.08122879    -0.75500
O606        O  0.69265960  0.48776512  0.16751855    -0.80700
C607        C  0.72868061  0.42754020  0.12745728     1.00300
C608        C  0.70835197  0.46876590  0.18825925     1.06200
O609        O  0.72120572  0.39953534  0.13848926    -0.76400
C610        C  0.63114231  0.43751270  0.06965456     1.04500
Fe611      Fe  0.63711280  0.41123553  0.37861856     1.65800
Fe612      Fe  0.58180891  0.47359645  0.37606198     1.73200
Fe613      Fe  0.56300012  0.39355990  0.34075311     1.54400
O614        O  0.59037866  0.38536531  0.31485936    -0.80100
O615        O  0.54065944  0.45550910  0.37976658    -0.78400
O616        O  0.63769035  0.40620050  0.33693596    -0.82600
O617        O  0.62905484  0.35686262  0.37949429    -0.77500
O618        O  0.54267082  0.43491618  0.31413901    -0.79200
O619        O  0.60257410  0.46098390  0.41855548    -0.82000
C620        C  0.60647478  0.33578034  0.37346491     0.98800
C621        C  0.61731179  0.39387456  0.31514548     1.06200
O622        O  0.59389717  0.42612662  0.36524093    -1.11000
O623        O  0.61983854  0.50211628  0.37355928    -0.73400
O624        O  0.65628837  0.46146570  0.37996049    -0.76900
O625        O  0.57919580  0.34674765  0.36324121    -0.77600
C626        C  0.64734435  0.49360779  0.37694316     0.97700
O627        O  0.63642184  0.41626152  0.42043228    -0.75500
O628        O  0.56008153  0.48781336  0.33424166    -0.80700
C629        C  0.52413583  0.42760207  0.37430359     1.00300
C630        C  0.54441849  0.46883560  0.31348189     1.06200
O631        O  0.53154651  0.39962373  0.36319811    -0.76400
C632        C  0.62175606  0.43741153  0.43203929     1.04500
Fe633      Fe  0.88736474  0.91119261  0.12847785     1.65800
Fe634      Fe  0.83203633  0.97356788  0.12584946     1.73200
Fe635      Fe  0.81325518  0.89352666  0.09056625     1.54400
O636        O  0.84062035  0.88538618  0.06466004    -0.80100
O637        O  0.79084539  0.95548679  0.12946578    -0.78400
O638        O  0.88797477  0.90604481  0.08680869    -0.82600
O639        O  0.87930583  0.85681735  0.12944822    -0.77500
O640        O  0.79288955  0.93488425  0.06396775    -0.79200
O641        O  0.85270935  0.96095970  0.16835313    -0.82000
C642        C  0.85671659  0.83574192  0.12334783     0.98800
C643        C  0.86758451  0.89380488  0.06498830     1.06200
O644        O  0.84414994  0.92608945  0.11506163    -1.11000
O645        O  0.87010231  0.00208844  0.12344715    -0.73400
O646        O  0.90652569  0.96142021  0.12973670    -0.76900
O647        O  0.82945445  0.84670792  0.11301557    -0.77600
C648        C  0.89759574  0.99356985  0.12678073     0.97700
O649        O  0.88665612  0.91633263  0.17028140    -0.75500
O650        O  0.81041065  0.98777426  0.08400942    -0.80700
C651        C  0.77437534  0.92753318  0.12407694     1.00300
C652        C  0.79469958  0.96879546  0.06327408     1.06200
O653        O  0.78184196  0.89952794  0.11304970    -0.76400
C654        C  0.87193163  0.93744148  0.18186081     1.04500
Fe655      Fe  0.86597661  0.91119288  0.37289564     1.65800
Fe656      Fe  0.92127772  0.97356524  0.37546295     1.73200
Fe657      Fe  0.94008127  0.89351880  0.41079886     1.54400
O658        O  0.91267665  0.88529474  0.43666909    -0.80100
O659        O  0.96243749  0.95549127  0.37178159    -0.78400
O660        O  0.86537307  0.90614637  0.41457017    -0.82600
O661        O  0.87404898  0.85682124  0.37204031    -0.77500
O662        O  0.96038032  0.93486895  0.43741469    -0.79200
O663        O  0.90053417  0.96096296  0.33296812    -0.82000
C664        C  0.89663350  0.83574283  0.37807821     0.98800
C665        C  0.88574051  0.89380880  0.43636883     1.06200
O666        O  0.90918955  0.92608855  0.38628937    -1.11000
O667        O  0.88323647  0.00207557  0.37794159    -0.73400
O668        O  0.84678887  0.96142090  0.37152990    -0.76900
O669        O  0.92390970  0.84671457  0.38830775    -0.77600
C670        C  0.85572888  0.99356383  0.37454673     0.97700
O671        O  0.86669204  0.91623136  0.33108995    -0.75500
O672        O  0.94298584  0.98777090  0.41728431    -0.80700
C673        C  0.97897229  0.92759272  0.37726818     1.00300
C674        C  0.95863420  0.96878883  0.43805761     1.06200
O675        O  0.97156535  0.89961130  0.38838451    -0.76400
C676        C  0.88136153  0.93738859  0.31948506     1.04500
Fe677      Fe  0.63739646  0.08657603  0.12848384     1.65800
Fe678      Fe  0.58231947  0.02386194  0.12577318     1.73200
Fe679      Fe  0.56316975  0.10384701  0.09061443     1.54400
O680        O  0.57929675  0.15080877  0.11286956    -0.80100
O681        O  0.56090478  0.00963453  0.08389929    -0.78400
O682        O  0.62916829  0.14091535  0.12936918    -0.82600
O683        O  0.63791764  0.09167244  0.08680842    -0.77500
O684        O  0.53197894  0.09773117  0.11334241    -0.79200
O685        O  0.62051433  0.99567635  0.12340843    -0.82000
C686        C  0.61741335  0.10358254  0.06492308     0.98800
C687        C  0.60651769  0.16189602  0.12320213     1.06200
O688        O  0.59423658  0.07145016  0.11506380    -1.11000
O689        O  0.60286463  0.03657243  0.16830810    -0.73400
O690        O  0.63665012  0.08141723  0.17027493    -0.76900
O691        O  0.59040800  0.11188741  0.06456456    -0.77600
C692        C  0.62196314  0.06021108  0.18183254     0.97700
O693        O  0.65684259  0.03647372  0.12983484    -0.75500
O694        O  0.54094692  0.04155077  0.12926777    -0.80700
C695        C  0.54487911  0.02857546  0.06328659     1.00300
C696        C  0.52447412  0.06952079  0.12411220     1.06200
O697        O  0.54274354  0.06243820  0.06412307    -0.76400
C698        C  0.64798451  0.00429846  0.12679822     1.04500
Fe699      Fe  0.61596500  0.08681482  0.37286754     1.65800
Fe700      Fe  0.67100018  0.02409278  0.37556499     1.73200
Fe701      Fe  0.69017920  0.10406042  0.41073651     1.54400
O702        O  0.67409211  0.15101783  0.38840952    -0.80100
O703        O  0.69252066  0.00984663  0.41742024    -0.78400
O704        O  0.62420687  0.14116039  0.37214529    -0.82600
O705        O  0.61544355  0.09170134  0.41455080    -0.77500
O706        O  0.72144911  0.09785979  0.38809283    -0.79200
O707        O  0.63283858  0.99592786  0.37805720    -0.82000
C708        C  0.63591846  0.10371083  0.43640986     0.98800
C709        C  0.64685679  0.16213334  0.37822786     1.06200
O710        O  0.65911880  0.07167543  0.38628227    -1.11000
O711        O  0.65035534  0.03680161  0.33303389    -0.73400
O712        O  0.61674934  0.08184138  0.33108021    -0.76900
O713        O  0.66288444  0.11216454  0.43673219    -0.77600
C714        C  0.63134304  0.06053328  0.31951369     0.97700
O715        O  0.59646811  0.03671237  0.37135022    -0.75500
O716        O  0.71233087  0.04178182  0.37196998    -0.80700
C717        C  0.70847565  0.02877494  0.43806700     1.00300
C718        C  0.72887956  0.06968640  0.37722758     1.06200
O719        O  0.71053642  0.06264991  0.43727558    -0.76400
C720        C  0.60533887  0.00454503  0.37452016     1.04500
C721        C  0.62615182  0.06352553  0.21178040    -0.16900
C722        C  0.62683714  0.06505384  0.23639943     0.07100
C723        C  0.62644065  0.06516902  0.26493053     0.09000
C724        C  0.62713491  0.06379499  0.28955772    -0.17800
C725        C  0.62418968  0.10690167  0.03856931    -0.16900
C726        C  0.62626512  0.10831993  0.01483693     0.07100
C727        C  0.62709910  0.10834490  0.48651313     0.09000
C728        C  0.62916153  0.10697203  0.46277535    -0.17800
C729        C  0.52775073  0.01170570  0.03737679    -0.16900
C730        C  0.51156077  0.00275338  0.01429933     0.07100
C731        C  0.99200587  0.99471004  0.48698584     0.09000
C732        C  0.97580161  0.98570470  0.46392995    -0.17800
C733        C  0.83316604  0.02103785  0.37386224    -0.16900
C734        C  0.81138454  0.04007707  0.37278994     0.07100
C735        C  0.78350791  0.05753435  0.37197213     0.09000
C736        C  0.75855006  0.06716226  0.37281079    -0.17800
C737        C  0.58276231  0.97710573  0.37385016    -0.16900
C738        C  0.56117347  0.95776713  0.37280620     0.07100
C739        C  0.53351941  0.93983272  0.37200709     0.09000
C740        C  0.50863250  0.92997672  0.37285369    -0.17800
C741        C  0.72561654  0.01186412  0.46396069    -0.16900
C742        C  0.74180910  0.00284827  0.48702287     0.07100
C743        C  0.76135479  0.99473686  0.01432871     0.09000
C744        C  0.77754366  0.98570431  0.03738704    -0.17800
C745        C  0.87892901  0.89020848  0.46270188    -0.16900
C746        C  0.87697851  0.88858983  0.48648002     0.07100
C747        C  0.87635536  0.88859027  0.01488316     0.09000
C748        C  0.87440489  0.89020820  0.03866063    -0.17800
C749        C  0.87621024  0.93415796  0.21181413    -0.16900
C750        C  0.87687507  0.93270689  0.23642345     0.07100
C751        C  0.87640275  0.93268340  0.26491995     0.09000
C752        C  0.87707413  0.93410669  0.28953136    -0.17800
C753        C  0.92015758  0.02104634  0.12747732    -0.16900
C754        C  0.94194944  0.04007250  0.12856528     0.07100
C755        C  0.96984426  0.05748418  0.12939149     0.09000
C756        C  0.49481198  0.06705432  0.12854521    -0.17800
C757        C  0.74472321  0.92985832  0.12850356    -0.16900
C758        C  0.71982166  0.93964794  0.12934539     0.07100
C759        C  0.69214512  0.95752761  0.12852779     0.09000
C760        C  0.67054797  0.97685148  0.12746985    -0.17800
C761        C  0.64057744  0.20025205  0.37535119    -0.16900
C762        C  0.63224258  0.23117737  0.37540314     0.07100
C763        C  0.62128820  0.26679673  0.37640990     0.09000
C764        C  0.61288989  0.29769924  0.37642998    -0.17800
C765        C  0.61276360  0.20001513  0.12615026    -0.16900
C766        C  0.62095177  0.23100251  0.12612209     0.07100
C767        C  0.63168582  0.26672800  0.12512549     0.09000
C768        C  0.63993378  0.29769400  0.12512511    -0.17800
C769        C  0.62605601  0.43412587  0.46199664    -0.16900
C770        C  0.62672270  0.43271709  0.48660831     0.07100
C771        C  0.62623475  0.43276642  0.01510071     0.09000
C772        C  0.62688307  0.43423342  0.03970489    -0.17800
C773        C  0.62860852  0.39021073  0.21284021    -0.16900
C774        C  0.62665943  0.38861046  0.23661939     0.07100
C775        C  0.62604551  0.38863784  0.26502532     0.09000
C776        C  0.62410778  0.39027369  0.28880649    -0.17800
C777        C  0.86308175  0.79765307  0.12634959    -0.16900
C778        C  0.87132000  0.76668733  0.12632605     0.07100
C779        C  0.88204625  0.73096460  0.12530744     0.09000
C780        C  0.89023460  0.69997972  0.12527041    -0.17800
C781        C  0.97532604  0.51173396  0.21412971    -0.16900
C782        C  0.99150730  0.50279276  0.23721784     0.07100
C783        C  0.51104657  0.49475792  0.26454294     0.09000
C784        C  0.52724378  0.48575461  0.28760626    -0.17800
C785        C  0.75833514  0.42985241  0.12303528    -0.16900
C786        C  0.78324344  0.43962387  0.12219810     0.07100
C787        C  0.81092899  0.45748439  0.12301785     0.09000
C788        C  0.83252983  0.47680030  0.12407026    -0.17800
C789        C  0.50822109  0.56704948  0.12290138    -0.16900
C790        C  0.53319713  0.55749562  0.12206920     0.07100
C791        C  0.56110744  0.54010715  0.12291774     0.09000
C792        C  0.58291042  0.52109456  0.12402129    -0.17800
C793        C  0.86252035  0.70020471  0.37612798    -0.16900
C794        C  0.87086243  0.73113192  0.37609879     0.07100
C795        C  0.88182452  0.76675555  0.37511768     0.09000
C796        C  0.89022511  0.79766083  0.37511136    -0.17800
C797        C  0.72550853  0.48565223  0.21415109    -0.16900
C798        C  0.74169768  0.49467359  0.23720969     0.07100
C799        C  0.76124693  0.50278254  0.26451288     0.09000
C800        C  0.77744560  0.51180056  0.28756937    -0.17800
C801        C  0.87886338  0.60685181  0.21288757    -0.16900
C802        C  0.87679404  0.60826311  0.23662130     0.07100
C803        C  0.87596501  0.60828382  0.26494623     0.09000
C804        C  0.87390530  0.60691191  0.28868526    -0.17800
C805        C  0.87688211  0.56348690  0.03970001    -0.16900
C806        C  0.87620921  0.56501675  0.01508375     0.07100
C807        C  0.87662433  0.56513130  0.48655816     0.09000
C808        C  0.87594224  0.56375261  0.46193491    -0.17800
C809        C  0.49448021  0.42997128  0.37872692    -0.16900
C810        C  0.96958718  0.43980952  0.37956565     0.07100
C811        C  0.94192113  0.45772512  0.37874667     0.09000
C812        C  0.92032325  0.47705484  0.37768409    -0.17800
C813        C  0.74453841  0.56716339  0.37868165    -0.16900
C814        C  0.71957412  0.55755512  0.37951609     0.07100
C815        C  0.69168846  0.54011632  0.37869224     0.09000
C816        C  0.66990254  0.52108413  0.37761890    -0.17800
Fe817      Fe  0.88711977  0.58676593  0.87861263     1.65800
Fe818      Fe  0.83208019  0.52405002  0.87594810     1.73200
Fe819      Fe  0.81289941  0.60401137  0.84073597     1.54400
O820        O  0.82900175  0.65098687  0.86301073    -0.80100
O821        O  0.81057929  0.50979140  0.83409814    -0.78400
O822        O  0.87888129  0.64110754  0.87935013    -0.82600
O823        O  0.88763462  0.59168712  0.83692588    -0.77500
O824        O  0.78165825  0.59784972  0.86341270    -0.79200
O825        O  0.87025243  0.49587599  0.87349923    -0.82000
C826        C  0.86714824  0.60365639  0.81505191     0.98800
C827        C  0.85623520  0.66208865  0.87323443     1.06200
O828        O  0.84396520  0.57162981  0.86520626    -1.11000
O829        O  0.85270415  0.53677178  0.91847133    -0.73400
O830        O  0.88635030  0.58176302  0.92040640    -0.76900
O831        O  0.84017203  0.61207492  0.81471580    -0.77600
C832        C  0.87173658  0.56048175  0.93198137     0.97700
O833        O  0.90660866  0.53666482  0.88011612    -0.75500
O834        O  0.79073946  0.54174754  0.87951155    -0.80700
C835        C  0.79459598  0.52871439  0.81345276     1.00300
C836        C  0.77420926  0.56966969  0.87426592     1.06200
O837        O  0.79251655  0.56258777  0.81423695    -0.76400
C838        C  0.89774468  0.50449483  0.87699639     1.04500
Fe839      Fe  0.86564242  0.58652942  0.62298550     1.65800
Fe840      Fe  0.92073508  0.52383476  0.62572453     1.73200
Fe841      Fe  0.93986208  0.60383901  0.66082379     1.54400
O842        O  0.92371816  0.65077831  0.63852116    -0.80100
O843        O  0.94218640  0.50963231  0.66760402    -0.78400
O844        O  0.87384591  0.64087599  0.62209523    -0.82600
O845        O  0.86513029  0.59159541  0.66466151    -0.77500
O846        O  0.97105662  0.59771290  0.63810339    -0.79200
O847        O  0.88256416  0.49563919  0.62814562    -0.82000
C848        C  0.88562863  0.60354164  0.68652975     0.98800
C849        C  0.89649085  0.66186183  0.62822223     1.06200
O850        O  0.90880710  0.57142136  0.63640501    -1.11000
O851        O  0.90015418  0.53652101  0.58318255    -0.73400
O852        O  0.86639144  0.58139525  0.58119762    -0.76900
O853        O  0.91261984  0.61189019  0.68686789    -0.77600
C854        C  0.88106655  0.56017284  0.56964844     0.97700
O855        O  0.84621187  0.53641904  0.62163834    -0.75500
O856        O  0.96208740  0.54153916  0.62218583    -0.80700
C857        C  0.95819303  0.52858825  0.68820720     1.00300
C858        C  0.97855872  0.56950909  0.62733440     1.06200
O859        O  0.96030129  0.56245309  0.68735186    -0.76400
C860        C  0.85508578  0.50425042  0.62472372     1.04500
Fe861      Fe  0.61568116  0.41123884  0.62302673     1.65800
Fe862      Fe  0.67103168  0.47359629  0.62567384     1.73200
Fe863      Fe  0.68977692  0.39352258  0.66095518     1.54400
O864        O  0.66239513  0.38536442  0.68684677    -0.80100
O865        O  0.71221800  0.45550159  0.62206034    -0.78400
O866        O  0.61505519  0.40606998  0.66469109    -0.82600
O867        O  0.62372435  0.35686241  0.62205568    -0.77500
O868        O  0.71014385  0.43485337  0.68756639    -0.79200
O869        O  0.65036208  0.46102412  0.58316591    -0.82000
C870        C  0.64630841  0.33577800  0.62814929     0.98800
C871        C  0.63543451  0.39380424  0.68651370     1.06200
O872        O  0.65889944  0.42611420  0.63645550    -1.11000
O873        O  0.63297058  0.50212760  0.62807349    -0.73400
O874        O  0.59653457  0.46147185  0.62176185    -0.76900
O875        O  0.67357266  0.34672981  0.63848947    -0.77600
C876        C  0.60547224  0.49361685  0.62472655     0.97700
O877        O  0.61640779  0.41640071  0.58122881    -0.75500
O878        O  0.69265960  0.48776519  0.66751855    -0.80700
C879        C  0.72868061  0.42754024  0.62745730     1.00300
C880        C  0.70835196  0.46876595  0.68825919     1.06200
O881        O  0.72120569  0.39953534  0.63848921    -0.76400
C882        C  0.63114233  0.43751280  0.56965453     1.04500
Fe883      Fe  0.63711279  0.41123555  0.87861856     1.65800
Fe884      Fe  0.58180887  0.47359647  0.87606197     1.73200
Fe885      Fe  0.56300009  0.39355989  0.84075308     1.54400
O886        O  0.59037862  0.38536539  0.81485932    -0.80100
O887        O  0.54065940  0.45550909  0.87976654    -0.78400
O888        O  0.63769034  0.40620051  0.83693595    -0.82600
O889        O  0.62905482  0.35686263  0.87949427    -0.77500
O890        O  0.54267077  0.43491618  0.81413901    -0.79200
O891        O  0.60257405  0.46098392  0.91855548    -0.82000
C892        C  0.60647478  0.33578031  0.87346485     0.98800
C893        C  0.61731179  0.39387466  0.81514544     1.06200
O894        O  0.59389715  0.42612664  0.86524089    -1.11000
O895        O  0.61983852  0.50211631  0.87355928    -0.73400
O896        O  0.65628836  0.46146572  0.87996049    -0.76900
O897        O  0.57919579  0.34674761  0.86324114    -0.77600
C898        C  0.64734432  0.49360782  0.87694315     0.97700
O899        O  0.63642179  0.41626154  0.92043229    -0.75500
O900        O  0.56008150  0.48781337  0.83424163    -0.80700
C901        C  0.52413580  0.42760203  0.87430356     1.00300
C902        C  0.54441851  0.46883559  0.81348193     1.06200
O903        O  0.53154648  0.39962370  0.86319810    -0.76400
C904        C  0.62175599  0.43741156  0.93203924     1.04500
Fe905      Fe  0.88736475  0.91119257  0.62847790     1.65800
Fe906      Fe  0.83203635  0.97356790  0.62584943     1.73200
Fe907      Fe  0.81325520  0.89352669  0.59056626     1.54400
O908        O  0.84062035  0.88538621  0.56466006    -0.80100
O909        O  0.79084540  0.95548683  0.62946576    -0.78400
O910        O  0.88797479  0.90604477  0.58680874    -0.82600
O911        O  0.87930583  0.85681731  0.62944829    -0.77500
O912        O  0.79288954  0.93488433  0.56396777    -0.79200
O913        O  0.85270934  0.96095979  0.66835311    -0.82000
C914        C  0.85671657  0.83574184  0.62334783     0.98800
C915        C  0.86758453  0.89380486  0.56498831     1.06200
O916        O  0.84414997  0.92608945  0.61506162    -1.11000
O917        O  0.87010230  0.00208841  0.62344710    -0.73400
O918        O  0.90652570  0.96142016  0.62973677    -0.76900
O919        O  0.82945445  0.84670791  0.61301553    -0.77600
C920        C  0.89759577  0.99356984  0.62678075     0.97700
O921        O  0.88665604  0.91633263  0.67028142    -0.75500
O922        O  0.81041067  0.98777431  0.58400939    -0.80700
C923        C  0.77437536  0.92753322  0.62407695     1.00300
C924        C  0.79469958  0.96879550  0.56327413     1.06200
O925        O  0.78184201  0.89952796  0.61304973    -0.76400
C926        C  0.87193157  0.93744153  0.68186081     1.04500
Fe927      Fe  0.86597660  0.91119290  0.87289565     1.65800
Fe928      Fe  0.92127770  0.97356528  0.87546295     1.73200
Fe929      Fe  0.94008121  0.89351880  0.91079887     1.54400
O930        O  0.91267658  0.88529466  0.93666906    -0.80100
O931        O  0.96243741  0.95549124  0.87178154    -0.78400
O932        O  0.86537305  0.90614640  0.91457018    -0.82600
O933        O  0.87404892  0.85682127  0.87204034    -0.77500
O934        O  0.96038027  0.93486891  0.93741474    -0.79200
O935        O  0.90053414  0.96096303  0.83296814    -0.82000
C936        C  0.89663347  0.83574286  0.87807826     0.98800
C937        C  0.88574049  0.89380877  0.93636879     1.06200
O938        O  0.90918954  0.92608856  0.88628933    -1.11000
O939        O  0.88323648  0.00207563  0.87794167    -0.73400
O940        O  0.84678888  0.96142095  0.87152990    -0.76900
O941        O  0.92390964  0.84671459  0.88830775    -0.77600
C942        C  0.85572889  0.99356387  0.87454676     0.97700
O943        O  0.86669203  0.91623140  0.83108995    -0.75500
O944        O  0.94298586  0.98777085  0.91728433    -0.80700
C945        C  0.97897228  0.92759272  0.87726821     1.00300
C946        C  0.95863414  0.96878881  0.93805759     1.06200
O947        O  0.97156532  0.89961131  0.88838459    -0.76400
C948        C  0.88136148  0.93738865  0.81948507     1.04500
Fe949      Fe  0.63739648  0.08657607  0.62848383     1.65800
Fe950      Fe  0.58231950  0.02386198  0.62577319     1.73200
Fe951      Fe  0.56316975  0.10384701  0.59061439     1.54400
O952        O  0.57929672  0.15080875  0.61286950    -0.80100
O953        O  0.56090479  0.00963451  0.58389929    -0.78400
O954        O  0.62916829  0.14091537  0.62936915    -0.82600
O955        O  0.63791764  0.09167243  0.58680839    -0.77500
O956        O  0.53197892  0.09773113  0.61334234    -0.79200
O957        O  0.62051436  0.99567638  0.62340848    -0.82000
C958        C  0.61741337  0.10358254  0.56492311     0.98800
C959        C  0.60651767  0.16189611  0.62320210     1.06200
O960        O  0.59423659  0.07145021  0.61506380    -1.11000
O961        O  0.60286465  0.03657248  0.66830810    -0.73400
O962        O  0.63665015  0.08141727  0.67027491    -0.76900
O963        O  0.59040801  0.11188742  0.56456455    -0.77600
C964        C  0.62196316  0.06021114  0.68183253     0.97700
O965        O  0.65684261  0.03647372  0.62983484    -0.75500
O966        O  0.54094696  0.04155078  0.62926779    -0.80700
C967        C  0.54487914  0.02857540  0.56328657     1.00300
C968        C  0.52447415  0.06952077  0.62411217     1.06200
O969        O  0.54274360  0.06243818  0.56412306    -0.76400
C970        C  0.64798453  0.00429848  0.62679824     1.04500
Fe971      Fe  0.61596503  0.08681478  0.87286754     1.65800
Fe972      Fe  0.67100021  0.02409273  0.87556498     1.73200
Fe973      Fe  0.69017920  0.10406041  0.91073648     1.54400
O974        O  0.67409210  0.15101779  0.88840947    -0.80100
O975        O  0.69252066  0.00984662  0.91742019    -0.78400
O976        O  0.62420687  0.14116036  0.87214526    -0.82600
O977        O  0.61544357  0.09170133  0.91455078    -0.77500
O978        O  0.72144909  0.09785978  0.88809278    -0.79200
O979        O  0.63283861  0.99592781  0.87805720    -0.82000
C980        C  0.63591848  0.10371086  0.93640988     0.98800
C981        C  0.64685678  0.16213331  0.87822780     1.06200
O982        O  0.65911882  0.07167539  0.88628225    -1.11000
O983        O  0.65035537  0.03680159  0.83303387    -0.73400
O984        O  0.61674937  0.08184134  0.83108022    -0.76900
O985        O  0.66288445  0.11216457  0.93673215    -0.77600
C986        C  0.63134309  0.06053324  0.81951371     0.97700
O987        O  0.59646815  0.03671234  0.87135020    -0.75500
O988        O  0.71233090  0.04178179  0.87196999    -0.80700
C989        C  0.70847568  0.02877491  0.93806701     1.00300
C990        C  0.72887955  0.06968639  0.87722757     1.06200
O991        O  0.71053641  0.06264990  0.93727556    -0.76400
C992        C  0.60533887  0.00454496  0.87452016     1.04500
C993        C  0.62615187  0.06352566  0.71178041    -0.16900
C994        C  0.62683719  0.06505397  0.73639942     0.07100
C995        C  0.62644071  0.06516904  0.76493056     0.09000
C996        C  0.62713495  0.06379498  0.78955771    -0.17800
C997        C  0.62418972  0.10690174  0.53856927    -0.16900
C998        C  0.62626517  0.10831998  0.51483701     0.07100
C999        C  0.62709908  0.10834492  0.98651317     0.09000
C1000       C  0.62916157  0.10697205  0.96277530    -0.17800
C1001       C  0.52775078  0.01170568  0.53737680    -0.16900
C1002       C  0.51156076  0.00275332  0.51429929     0.07100
C1003       C  0.99200578  0.99471002  0.98698581     0.09000
C1004       C  0.97580161  0.98570471  0.96393002    -0.17800
C1005       C  0.83316604  0.02103793  0.87386227    -0.16900
C1006       C  0.81138461  0.04007720  0.87278997     0.07100
C1007       C  0.78350791  0.05753443  0.87197212     0.09000
C1008       C  0.75855007  0.06716226  0.87281078    -0.17800
C1009       C  0.58276236  0.97710573  0.87385020    -0.16900
C1010       C  0.56117342  0.95776708  0.87280622     0.07100
C1011       C  0.53351945  0.93983275  0.87200715     0.09000
C1012       C  0.50863246  0.92997668  0.87285379    -0.17800
C1013       C  0.72561654  0.01186409  0.96396059    -0.16900
C1014       C  0.74180919  0.00284814  0.98702288     0.07100
C1015       C  0.76135479  0.99473693  0.51432882     0.09000
C1016       C  0.77754356  0.98570441  0.53738702    -0.17800
C1017       C  0.87892899  0.89020844  0.96270189    -0.16900
C1018       C  0.87697852  0.88858979  0.98647997     0.07100
C1019       C  0.87635538  0.88859028  0.51488315     0.09000
C1020       C  0.87440492  0.89020816  0.53866070    -0.17800
C1021       C  0.87621015  0.93415805  0.71181413    -0.16900
C1022       C  0.87687502  0.93270698  0.73642347     0.07100
C1023       C  0.87640270  0.93268352  0.76491997     0.09000
C1024       C  0.87707407  0.93410682  0.78953138    -0.17800
C1025       C  0.92015756  0.02104626  0.62747730    -0.16900
C1026       C  0.94194947  0.04007249  0.62856522     0.07100
C1027       C  0.96984419  0.05748414  0.62939140     0.09000
C1028       C  0.49481197  0.06705427  0.62854515    -0.17800
C1029       C  0.74472323  0.92985833  0.62850355    -0.16900
C1030       C  0.71982168  0.93964795  0.62934536     0.07100
C1031       C  0.69214513  0.95752761  0.62852775     0.09000
C1032       C  0.67054797  0.97685146  0.62746982    -0.17800
C1033       C  0.64057744  0.20025200  0.87535113    -0.16900
C1034       C  0.63224254  0.23117734  0.87540308     0.07100
C1035       C  0.62128816  0.26679668  0.87640982     0.09000
C1036       C  0.61288988  0.29769923  0.87642989    -0.17800
C1037       C  0.61276351  0.20001503  0.62615027    -0.16900
C1038       C  0.62095179  0.23100263  0.62612213     0.07100
C1039       C  0.63168579  0.26672787  0.62512557     0.09000
C1040       C  0.63993383  0.29769410  0.62512519    -0.17800
C1041       C  0.62605596  0.43412591  0.96199668    -0.16900
C1042       C  0.62672269  0.43271710  0.98660824     0.07100
C1043       C  0.62623474  0.43276645  0.51510065     0.09000
C1044       C  0.62688310  0.43423350  0.53970496    -0.17800
C1045       C  0.62860849  0.39021075  0.71284015    -0.16900
C1046       C  0.62665939  0.38861054  0.73661940     0.07100
C1047       C  0.62604552  0.38863800  0.76502527     0.09000
C1048       C  0.62410776  0.39027388  0.78880649    -0.17800
C1049       C  0.86308172  0.79765309  0.62634956    -0.16900
C1050       C  0.87132004  0.76668726  0.62632600     0.07100
C1051       C  0.88204624  0.73096466  0.62530737     0.09000
C1052       C  0.89023459  0.69997965  0.62527035    -0.17800
C1053       C  0.97532609  0.51173396  0.71412981    -0.16900
C1054       C  0.99150725  0.50279281  0.73721780     0.07100
C1055       C  0.51104660  0.49475791  0.76454305     0.09000
C1056       C  0.52724374  0.48575462  0.78760620    -0.17800
C1057       C  0.75833516  0.42985243  0.62303528    -0.16900
C1058       C  0.78324346  0.43962380  0.62219813     0.07100
C1059       C  0.81092904  0.45748434  0.62301792     0.09000
C1060       C  0.83252984  0.47680027  0.62407034    -0.17800
C1061       C  0.50822105  0.56704951  0.62290136    -0.16900
C1062       C  0.53319717  0.55749562  0.62206915     0.07100
C1063       C  0.56110738  0.54010718  0.62291770     0.09000
C1064       C  0.58291046  0.52109455  0.62402129    -0.17800
C1065       C  0.86252035  0.70020473  0.87612804    -0.16900
C1066       C  0.87086238  0.73113191  0.87609887     0.07100
C1067       C  0.88182446  0.76675561  0.87511779     0.09000
C1068       C  0.89022504  0.79766083  0.87511143    -0.17800
C1069       C  0.72550860  0.48565231  0.71415112    -0.16900
C1070       C  0.74169765  0.49467355  0.73720962     0.07100
C1071       C  0.76124700  0.50278251  0.76451296     0.09000
C1072       C  0.77744558  0.51180054  0.78756930    -0.17800
C1073       C  0.87886337  0.60685176  0.71288760    -0.16900
C1074       C  0.87679405  0.60826302  0.73662134     0.07100
C1075       C  0.87596505  0.60828373  0.76494627     0.09000
C1076       C  0.87390532  0.60691187  0.78868528    -0.17800
C1077       C  0.87688210  0.56348684  0.53970004    -0.16900
C1078       C  0.87620919  0.56501672  0.51508375     0.07100
C1079       C  0.87662434  0.56513128  0.98655811     0.09000
C1080       C  0.87594224  0.56375257  0.96193491    -0.17800
C1081       C  0.49448020  0.42997127  0.87872692    -0.16900
C1082       C  0.96958722  0.43980949  0.87956565     0.07100
C1083       C  0.94192112  0.45772509  0.87874666     0.09000
C1084       C  0.92032328  0.47705481  0.87768410    -0.17800
C1085       C  0.74453844  0.56716345  0.87868171    -0.16900
C1086       C  0.71957415  0.55755515  0.87951615     0.07100
C1087       C  0.69168848  0.54011633  0.87869227     0.09000
C1088       C  0.66990253  0.52108416  0.87761891    -0.17800
loop_ 
_geom_bond_atom_site_label_1 
_geom_bond_atom_site_label_2 
_geom_bond_distance 
_geom_bond_site_symmetry_2 
_ccdc_geom_bond_type 
Fe1          O17   2.060       .  S
Fe1           O7   2.070       .  S
Fe1          O14   2.079       .  S
Fe1           O6   2.060       .  S
Fe1          O12   1.970       .  S
Fe2           O5   2.066       .  S
Fe2           O9   2.077       .  S
Fe2          O13   2.074       .  S
Fe2          O18   2.067       .  S
Fe2          O12   1.973       .  S
Fe3          O21   2.053       .  S
Fe3           O8   2.082       .  S
Fe3          O15   2.069       .  S
Fe3           O4   2.077       .  S
Fe3          O12   1.973       .  S
O4           C11   1.266       .  A
O5           C19   1.270       .  A
O6           C11   1.261       .  A
O7           C10   1.275       .  A
O8           C20   1.271       .  A
O9           C22   1.262       .  A
C10          O15   1.273       .  A
C10         C260   1.430       .  S
C11         C249   1.446       .  S
O13          C16   1.277       .  A
O14          C16   1.279       .  A
C16         C264   1.434       .  S
O17          C22   1.259       .  A
O18          C20   1.266       .  A
C19          O21   1.266       .  A
C19         C256   1.425       .  S
C20         C269   1.447       .  S
C22         C268   1.448       .  S
Fe23         O39   2.060       .  S
Fe23         O29   2.070       .  S
Fe23         O36   2.079       .  S
Fe23         O28   2.061       .  S
Fe23         O34   1.970       .  S
Fe24         O27   2.066       .  S
Fe24         O31   2.077       .  S
Fe24         O35   2.074       .  S
Fe24         O40   2.067       .  S
Fe24         O34   1.973       .  S
Fe25         O43   2.053       .  S
Fe25         O30   2.082       .  S
Fe25         O37   2.069       .  S
Fe25         O26   2.077       .  S
Fe25         O34   1.973       .  S
O26          C33   1.266       .  A
O27          C41   1.270       .  A
O28          C33   1.261       .  A
O29          C32   1.275       .  A
O30          C42   1.271       .  A
O31          C44   1.262       .  A
C32          O37   1.273       .  A
C32         C257   1.430       .  S
C33         C236   1.446       .  S
O35          C38   1.277       .  A
O36          C38   1.279       .  A
C38         C261   1.434       .  S
O39          C44   1.259       .  A
O40          C42   1.266       .  A
C41          O43   1.266       .  A
C41         C237   1.425       .  S
C42         C789   1.446       .  S
C44         C244   1.448       .  S
Fe45         O61   2.079       .  S
Fe45         O51   2.061       .  S
Fe45         O58   2.059       .  S
Fe45         O50   2.071       .  S
Fe45         O56   1.970       .  S
Fe46         O49   2.066       .  S
Fe46         O53   2.072       .  S
Fe46         O57   2.079       .  S
Fe46         O62   2.066       .  S
Fe46         O56   1.974       .  S
Fe47         O65   2.081       .  S
Fe47         O52   2.053       .  S
Fe47         O59   2.077       .  S
Fe47         O48   2.069       .  S
Fe47         O56   1.973       .  S
O48          C55   1.272       .  A
O49          C63   1.266       .  A
O50          C55   1.275       .  A
O51          C54   1.261       .  A
O52          C64   1.266       .  A
O53          C66   1.277       .  A
C54          O59   1.266       .  A
C54         C224   1.446       .  S
C55         C229   1.431       .  S
O57          C60   1.263       .  A
O58          C60   1.259       .  A
C60         C248   1.449       .  S
O61          C66   1.279       .  A
O62          C64   1.271       .  A
C63          O65   1.270       .  A
C63         C241   1.446       .  S
C64         C253   1.425       .  S
C66         C228   1.434       .  S
Fe67         O83   2.079       .  S
Fe67         O73   2.061       .  S
Fe67         O80   2.059       .  S
Fe67         O72   2.071       .  S
Fe67         O78   1.970       .  S
Fe68         O71   2.065       .  S
Fe68         O75   2.073       .  S
Fe68         O79   2.079       .  S
Fe68         O84   2.066       .  S
Fe68         O78   1.974       .  S
Fe69         O87   2.082       .  S
Fe69         O74   2.053       .  S
Fe69         O81   2.077       .  S
Fe69         O70   2.069       .  S
Fe69         O78   1.973       .  S
O70          C77   1.272       .  A
O71          C85   1.266       .  A
O72          C77   1.275       .  A
O73          C76   1.261       .  A
O74          C86   1.266       .  A
O75          C88   1.277       .  A
C76          O81   1.266       .  A
C76         C220   1.446       .  S
C77         C232   1.431       .  S
O79          C82   1.263       .  A
O80          C82   1.259       .  A
C82         C272   1.449       .  S
O83          C88   1.279       .  A
O84          C86   1.271       .  A
C85          O87   1.270       .  A
C85         C265   1.446   1_455  S
C86         C240   1.425       .  S
C88         C225   1.434       .  S
Fe89        O105   2.079       .  S
Fe89         O95   2.061       .  S
Fe89        O102   2.059       .  S
Fe89         O94   2.071       .  S
Fe89        O100   1.970       .  S
Fe90         O93   2.066       .  S
Fe90         O97   2.072       .  S
Fe90        O101   2.079   1_565  S
Fe90        O106   2.066       .  S
Fe90        O100   1.974       .  S
Fe91        O109   2.082       .  S
Fe91         O96   2.053       .  S
Fe91        O103   2.077       .  S
Fe91         O92   2.069       .  S
Fe91        O100   1.973       .  S
O92          C99   1.272       .  A
O93         C107   1.266       .  A
O94          C99   1.275       .  A
O95          C98   1.261       .  A
O96         C108   1.266       .  A
O97         C110   1.277       .  A
C98         O103   1.266       .  A
C98         C233   1.446       .  S
C99         C204   1.431       .  S
O101        C104   1.263   1_545  A
O102        C104   1.259       .  A
C104        C209   1.449   1_565  S
O105        C110   1.279       .  A
O106        C108   1.271       .  A
C107        O109   1.270       .  A
C107        C213   1.446       .  S
C108        C200   1.425       .  S
C110        C205   1.434       .  S
Fe111       O127   2.079       .  S
Fe111       O117   2.061       .  S
Fe111       O124   2.059       .  S
Fe111       O116   2.071       .  S
Fe111       O122   1.970       .  S
Fe112       O115   2.065       .  S
Fe112       O119   2.073       .  S
Fe112       O123   2.079   1_565  S
Fe112       O128   2.066       .  S
Fe112       O122   1.974       .  S
Fe113       O131   2.082       .  S
Fe113       O118   2.053       .  S
Fe113       O125   2.077       .  S
Fe113       O114   2.069       .  S
Fe113       O122   1.973       .  S
O114        C121   1.272       .  A
O115        C129   1.266       .  A
O116        C121   1.275       .  A
O117        C120   1.261       .  A
O118        C130   1.266       .  A
O119        C132   1.277       .  A
C120        O125   1.266       .  A
C120        C252   1.446       .  S
C121        C201   1.431       .  S
O123        C126   1.263   1_545  A
O124        C126   1.259       .  A
C126        C189   1.449   1_565  S
O127        C132   1.279       .  A
O128        C130   1.271       .  A
C129        O131   1.271       .  A
C129        C740   1.446       .  S
C130        C188   1.425       .  S
C132        C208   1.434       .  S
Fe133       O149   2.060       .  S
Fe133       O139   2.070       .  S
Fe133       O146   2.079       .  S
Fe133       O138   2.061       .  S
Fe133       O144   1.970       .  S
Fe134       O137   2.066       .  S
Fe134       O141   2.077   1_545  S
Fe134       O145   2.074       .  S
Fe134       O150   2.067       .  S
Fe134       O144   1.973       .  S
Fe135       O153   2.053       .  S
Fe135       O140   2.082       .  S
Fe135       O147   2.069       .  S
Fe135       O136   2.077       .  S
Fe135       O144   1.973       .  S
O136        C143   1.266       .  A
O137        C151   1.270       .  A
O138        C143   1.261       .  A
O139        C142   1.275       .  A
O140        C152   1.271       .  A
O141        C154   1.262   1_565  A
C142        O147   1.273       .  A
C142        C181   1.430       .  S
C143        C221   1.446       .  S
O145        C148   1.277       .  A
O146        C148   1.279       .  A
C148        C177   1.434       .  S
O149        C154   1.259       .  A
O150        C152   1.266       .  A
C151        O153   1.266       .  A
C151        C185   1.425       .  S
C152        C212   1.446   1_455  S
C154        C216   1.448   1_545  S
Fe155       O171   2.060       .  S
Fe155       O161   2.070       .  S
Fe155       O168   2.079       .  S
Fe155       O160   2.061       .  S
Fe155       O166   1.970       .  S
Fe156       O159   2.066       .  S
Fe156       O163   2.077   1_545  S
Fe156       O167   2.074       .  S
Fe156       O172   2.067       .  S
Fe156       O166   1.973       .  S
Fe157       O175   2.053       .  S
Fe157       O162   2.083       .  S
Fe157       O169   2.069       .  S
Fe157       O158   2.077       .  S
Fe157       O166   1.973       .  S
O158        C165   1.266       .  A
O159        C173   1.270       .  A
O160        C165   1.261       .  A
O161        C164   1.275       .  A
O162        C174   1.271       .  A
O163        C176   1.262   1_565  A
C164        O169   1.273       .  A
C164        C184   1.430       .  S
C165        C217   1.446       .  S
O167        C170   1.277       .  A
O168        C170   1.279       .  A
C170        C180   1.434       .  S
O171        C176   1.259       .  A
O172        C174   1.266       .  A
C173        O175   1.266       .  A
C173        C197   1.425       .  S
C174        C192   1.447       .  S
C176        C193   1.448   1_545  S
C177        C178   1.205       .  T
C178        C179   1.412       .  S
C179        C180   1.205       .  T
C181        C182   1.203       .  T
C182        C455   1.408   1_554  S
C183        C184   1.203       .  T
C183        C454   1.408       .  S
C185        C186   1.201       .  T
C186       C1003   1.404   1_444  S
C187        C188   1.200       .  T
C187       C1002   1.404   1_565  S
C189        C190   1.214       .  T
C190        C191   1.425       .  S
C191        C192   1.213       .  T
C193        C194   1.213       .  T
C194        C195   1.424       .  S
C195        C196   1.213       .  T
C196        C673   1.446   1_455  S
C197        C198   1.200       .  T
C198        C471   1.404   1_545  S
C199        C200   1.200       .  T
C199        C470   1.404   1_564  S
C201        C202   1.204       .  T
C202        C475   1.409       .  S
C203        C204   1.204       .  T
C203        C474   1.409   1_554  S
C205        C206   1.205       .  T
C206        C207   1.411       .  S
C207        C208   1.205       .  T
C209        C210   1.214       .  T
C210        C211   1.425       .  S
C211        C756   1.213       .  T
C212        C755   1.213       .  T
C213        C214   1.213       .  T
C214        C215   1.424       .  S
C215        C216   1.213       .  T
C217        C218   1.213       .  T
C218        C219   1.424       .  S
C219        C220   1.213       .  T
C221        C222   1.213       .  T
C222        C223   1.424       .  S
C223        C224   1.213       .  T
C225        C226   1.205       .  T
C226        C499   1.411       .  S
C227        C228   1.205       .  T
C227        C498   1.411   1_554  S
C229        C230   1.204       .  T
C230        C231   1.409       .  S
C231        C232   1.204       .  T
C233        C234   1.213       .  T
C234        C235   1.424       .  S
C235        C236   1.213       .  T
C237        C238   1.200       .  T
C238        C783   1.404       .  S
C239        C240   1.200       .  T
C239        C782   1.404   1_455  S
C241        C242   1.213       .  T
C242        C243   1.424       .  S
C243        C244   1.213       .  T
C245        C586   1.446   1_455  S
C245        C246   1.213       .  T
C246        C247   1.425       .  S
C247        C248   1.214       .  T
C249        C250   1.214       .  T
C250        C251   1.425       .  S
C251        C252   1.213       .  T
C253        C254   1.201       .  T
C254        C255   1.404       .  S
C255        C256   1.201       .  T
C257        C258   1.203       .  T
C258        C259   1.408       .  S
C259        C260   1.203       .  T
C261        C262   1.205       .  T
C262        C535   1.412   1_554  S
C263        C264   1.205       .  T
C263        C534   1.412       .  S
C265        C810   1.213       .  T
C266        C809   1.213       .  T
C266        C267   1.424       .  S
C267        C268   1.213       .  T
C269        C270   1.213       .  T
C270        C271   1.425       .  S
C271        C272   1.214       .  T
Fe273       O289   2.060       .  S
Fe273       O279   2.070       .  S
Fe273       O286   2.079       .  S
Fe273       O278   2.060       .  S
Fe273       O284   1.970       .  S
Fe274       O277   2.066       .  S
Fe274       O281   2.077       .  S
Fe274       O285   2.074       .  S
Fe274       O290   2.067       .  S
Fe274       O284   1.973       .  S
Fe275       O293   2.053       .  S
Fe275       O280   2.082       .  S
Fe275       O287   2.069       .  S
Fe275       O276   2.077       .  S
Fe275       O284   1.973       .  S
O276        C283   1.266       .  A
O277        C291   1.270       .  A
O278        C283   1.261       .  A
O279        C282   1.275       .  A
O280        C292   1.271       .  A
O281        C294   1.262       .  A
C282        O287   1.273       .  A
C282        C532   1.430       .  S
C283        C521   1.446       .  S
O285        C288   1.277       .  A
O286        C288   1.279       .  A
C288        C536   1.434       .  S
O289        C294   1.259       .  A
O290        C292   1.266       .  A
C291        O293   1.266       .  A
C291        C528   1.425       .  S
C292        C541   1.447       .  S
C294        C540   1.448       .  S
Fe295       O311   2.060       .  S
Fe295       O301   2.070       .  S
Fe295       O308   2.079       .  S
Fe295       O300   2.061       .  S
Fe295       O306   1.970       .  S
Fe296       O299   2.066       .  S
Fe296       O303   2.077       .  S
Fe296       O307   2.074       .  S
Fe296       O312   2.067       .  S
Fe296       O306   1.973       .  S
Fe297       O315   2.053       .  S
Fe297       O302   2.082       .  S
Fe297       O309   2.069       .  S
Fe297       O298   2.077       .  S
Fe297       O306   1.973       .  S
O298        C305   1.266       .  A
O299        C313   1.270       .  A
O300        C305   1.261       .  A
O301        C304   1.275       .  A
O302        C314   1.271       .  A
O303        C316   1.262       .  A
C304        O309   1.273       .  A
C304        C529   1.430       .  S
C305        C508   1.446       .  S
O307        C310   1.277       .  A
O308        C310   1.279       .  A
C310        C533   1.434       .  S
O311        C316   1.259       .  A
O312        C314   1.266       .  A
C313        O315   1.266       .  A
C313        C509   1.425       .  S
C314       C1061   1.446       .  S
C316        C516   1.448       .  S
Fe317       O333   2.079       .  S
Fe317       O323   2.061       .  S
Fe317       O330   2.059       .  S
Fe317       O322   2.071       .  S
Fe317       O328   1.970       .  S
Fe318       O321   2.066       .  S
Fe318       O325   2.072       .  S
Fe318       O329   2.079       .  S
Fe318       O334   2.066       .  S
Fe318       O328   1.974       .  S
Fe319       O337   2.081       .  S
Fe319       O324   2.053       .  S
Fe319       O331   2.077       .  S
Fe319       O320   2.069       .  S
Fe319       O328   1.973       .  S
O320        C327   1.272       .  A
O321        C335   1.266       .  A
O322        C327   1.275       .  A
O323        C326   1.261       .  A
O324        C336   1.266       .  A
O325        C338   1.277       .  A
C326        O331   1.266       .  A
C326        C496   1.446       .  S
C327        C501   1.431       .  S
O329        C332   1.263       .  A
O330        C332   1.259       .  A
C332        C520   1.449       .  S
O333        C338   1.279       .  A
O334        C336   1.271       .  A
C335        O337   1.270       .  A
C335        C513   1.446       .  S
C336        C525   1.425       .  S
C338        C500   1.434       .  S
Fe339       O355   2.079       .  S
Fe339       O345   2.061       .  S
Fe339       O352   2.059       .  S
Fe339       O344   2.071       .  S
Fe339       O350   1.970       .  S
Fe340       O343   2.065       .  S
Fe340       O347   2.073       .  S
Fe340       O351   2.079       .  S
Fe340       O356   2.066       .  S
Fe340       O350   1.974       .  S
Fe341       O359   2.082       .  S
Fe341       O346   2.053       .  S
Fe341       O353   2.077       .  S
Fe341       O342   2.069       .  S
Fe341       O350   1.973       .  S
O342        C349   1.272       .  A
O343        C357   1.266       .  A
O344        C349   1.275       .  A
O345        C348   1.261       .  A
O346        C358   1.266       .  A
O347        C360   1.277       .  A
C348        O353   1.266       .  A
C348        C492   1.446       .  S
C349        C504   1.431       .  S
O351        C354   1.263       .  A
O352        C354   1.259       .  A
C354        C544   1.449       .  S
O355        C360   1.279       .  A
O356        C358   1.271       .  A
C357        O359   1.270       .  A
C357        C537   1.446   1_455  S
C358        C512   1.425       .  S
C360        C497   1.434       .  S
Fe361       O377   2.079       .  S
Fe361       O367   2.061       .  S
Fe361       O374   2.059       .  S
Fe361       O366   2.071       .  S
Fe361       O372   1.970       .  S
Fe362       O365   2.066       .  S
Fe362       O369   2.072       .  S
Fe362       O373   2.079   1_565  S
Fe362       O378   2.066       .  S
Fe362       O372   1.974       .  S
Fe363       O381   2.082       .  S
Fe363       O368   2.053       .  S
Fe363       O375   2.077       .  S
Fe363       O364   2.069       .  S
Fe363       O372   1.973       .  S
O364        C371   1.272       .  A
O365        C379   1.266       .  A
O366        C371   1.275       .  A
O367        C370   1.261       .  A
O368        C380   1.266       .  A
O369        C382   1.277       .  A
C370        O375   1.266       .  A
C370        C505   1.446       .  S
C371        C476   1.431       .  S
O373        C376   1.263   1_545  A
O374        C376   1.259       .  A
C376        C481   1.449   1_565  S
O377        C382   1.279       .  A
O378        C380   1.271       .  A
C379        O381   1.270       .  A
C379        C485   1.446       .  S
C380        C472   1.425       .  S
C382        C477   1.434       .  S
Fe383       O399   2.079       .  S
Fe383       O389   2.061       .  S
Fe383       O396   2.059       .  S
Fe383       O388   2.071       .  S
Fe383       O394   1.970       .  S
Fe384       O387   2.065       .  S
Fe384       O391   2.073       .  S
Fe384       O395   2.079   1_565  S
Fe384       O400   2.066       .  S
Fe384       O394   1.974       .  S
Fe385       O403   2.082       .  S
Fe385       O390   2.053       .  S
Fe385       O397   2.077       .  S
Fe385       O386   2.069       .  S
Fe385       O394   1.973       .  S
O386        C393   1.272       .  A
O387        C401   1.266       .  A
O388        C393   1.275       .  A
O389        C392   1.261       .  A
O390        C402   1.266       .  A
O391        C404   1.277       .  A
C392        O397   1.266       .  A
C392        C524   1.446       .  S
C393        C473   1.431       .  S
O395        C398   1.263   1_545  A
O396        C398   1.259       .  A
C398        C461   1.449   1_565  S
O399        C404   1.279       .  A
O400        C402   1.271       .  A
C401        O403   1.271       .  A
C401       C1012   1.446       .  S
C402        C460   1.425       .  S
C404        C480   1.434       .  S
Fe405       O421   2.060       .  S
Fe405       O411   2.070       .  S
Fe405       O418   2.079       .  S
Fe405       O410   2.061       .  S
Fe405       O416   1.970       .  S
Fe406       O409   2.066       .  S
Fe406       O413   2.077   1_545  S
Fe406       O417   2.074       .  S
Fe406       O422   2.067       .  S
Fe406       O416   1.973       .  S
Fe407       O425   2.053       .  S
Fe407       O412   2.082       .  S
Fe407       O419   2.069       .  S
Fe407       O408   2.077       .  S
Fe407       O416   1.973       .  S
O408        C415   1.266       .  A
O409        C423   1.270       .  A
O410        C415   1.261       .  A
O411        C414   1.275       .  A
O412        C424   1.271       .  A
O413        C426   1.262   1_565  A
C414        O419   1.273       .  A
C414        C453   1.430       .  S
C415        C493   1.446       .  S
O417        C420   1.277       .  A
O418        C420   1.279       .  A
C420        C449   1.434       .  S
O421        C426   1.259       .  A
O422        C424   1.266       .  A
C423        O425   1.266       .  A
C423        C457   1.425       .  S
C424        C484   1.446   1_455  S
C426        C488   1.448   1_545  S
Fe427       O443   2.060       .  S
Fe427       O433   2.070       .  S
Fe427       O440   2.079       .  S
Fe427       O432   2.061       .  S
Fe427       O438   1.970       .  S
Fe428       O431   2.066       .  S
Fe428       O435   2.077   1_545  S
Fe428       O439   2.074       .  S
Fe428       O444   2.067       .  S
Fe428       O438   1.973       .  S
Fe429       O447   2.053       .  S
Fe429       O434   2.083       .  S
Fe429       O441   2.069       .  S
Fe429       O430   2.077       .  S
Fe429       O438   1.973       .  S
O430        C437   1.266       .  A
O431        C445   1.270       .  A
O432        C437   1.261       .  A
O433        C436   1.275       .  A
O434        C446   1.271       .  A
O435        C448   1.262   1_565  A
C436        O441   1.273       .  A
C436        C456   1.430       .  S
C437        C489   1.446       .  S
O439        C442   1.277       .  A
O440        C442   1.279       .  A
C442        C452   1.434       .  S
O443        C448   1.259       .  A
O444        C446   1.266       .  A
C445        O447   1.266       .  A
C445        C469   1.425       .  S
C446        C464   1.447       .  S
C448        C465   1.448   1_545  S
C449        C450   1.205       .  T
C450        C451   1.412       .  S
C451        C452   1.205       .  T
C453        C454   1.203       .  T
C455        C456   1.203       .  T
C457        C458   1.201       .  T
C458        C731   1.404   1_445  S
C459        C460   1.200       .  T
C459        C730   1.404   1_566  S
C461        C462   1.214       .  T
C462        C463   1.425       .  S
C463        C464   1.213       .  T
C465        C466   1.213       .  T
C466        C467   1.424       .  S
C467        C468   1.213       .  T
C468        C945   1.446   1_455  S
C469        C470   1.200       .  T
C471        C472   1.200       .  T
C473        C474   1.204       .  T
C475        C476   1.204       .  T
C477        C478   1.205       .  T
C478        C479   1.411       .  S
C479        C480   1.205       .  T
C481        C482   1.214       .  T
C482        C483   1.425       .  S
C483       C1028   1.213       .  T
C484       C1027   1.213       .  T
C485        C486   1.213       .  T
C486        C487   1.424       .  S
C487        C488   1.213       .  T
C489        C490   1.213       .  T
C490        C491   1.424       .  S
C491        C492   1.213       .  T
C493        C494   1.213       .  T
C494        C495   1.424       .  S
C495        C496   1.213       .  T
C497        C498   1.205       .  T
C499        C500   1.205       .  T
C501        C502   1.204       .  T
C502        C503   1.409       .  S
C503        C504   1.204       .  T
C505        C506   1.213       .  T
C506        C507   1.424       .  S
C507        C508   1.213       .  T
C509        C510   1.200       .  T
C510       C1055   1.404       .  S
C511        C512   1.200       .  T
C511       C1054   1.404   1_455  S
C513        C514   1.213       .  T
C514        C515   1.424       .  S
C515        C516   1.213       .  T
C517        C858   1.446   1_455  S
C517        C518   1.213       .  T
C518        C519   1.425       .  S
C519        C520   1.214       .  T
C521        C522   1.214       .  T
C522        C523   1.425       .  S
C523        C524   1.213       .  T
C525        C526   1.200       .  T
C526        C527   1.404       .  S
C527        C528   1.201       .  T
C529        C530   1.203       .  T
C530        C531   1.408       .  S
C531        C532   1.203       .  T
C533        C534   1.205       .  T
C535        C536   1.205       .  T
C537       C1082   1.213       .  T
C538       C1081   1.213       .  T
C538        C539   1.424       .  S
C539        C540   1.213       .  T
C541        C542   1.213       .  T
C542        C543   1.425       .  S
C543        C544   1.214       .  T
Fe545       O561   2.060       .  S
Fe545       O551   2.070       .  S
Fe545       O558   2.079       .  S
Fe545       O550   2.060       .  S
Fe545       O556   1.970       .  S
Fe546       O549   2.066       .  S
Fe546       O553   2.077       .  S
Fe546       O557   2.074       .  S
Fe546       O562   2.067       .  S
Fe546       O556   1.973       .  S
Fe547       O565   2.053       .  S
Fe547       O552   2.082       .  S
Fe547       O559   2.069       .  S
Fe547       O548   2.077       .  S
Fe547       O556   1.973       .  S
O548        C555   1.266       .  A
O549        C563   1.270       .  A
O550        C555   1.261       .  A
O551        C554   1.275       .  A
O552        C564   1.271       .  A
O553        C566   1.262       .  A
C554        O559   1.273       .  A
C554        C804   1.430       .  S
C555        C793   1.446       .  S
O557        C560   1.277       .  A
O558        C560   1.279       .  A
C560        C808   1.434       .  S
O561        C566   1.259       .  A
O562        C564   1.266       .  A
C563        O565   1.266       .  A
C563        C800   1.425       .  S
C564        C813   1.447       .  S
C566        C812   1.448       .  S
Fe567       O583   2.060       .  S
Fe567       O573   2.070       .  S
Fe567       O580   2.079       .  S
Fe567       O572   2.061       .  S
Fe567       O578   1.970       .  S
Fe568       O571   2.066       .  S
Fe568       O575   2.077       .  S
Fe568       O579   2.074       .  S
Fe568       O584   2.067       .  S
Fe568       O578   1.973       .  S
Fe569       O587   2.053       .  S
Fe569       O574   2.082       .  S
Fe569       O581   2.069       .  S
Fe569       O570   2.077       .  S
Fe569       O578   1.973       .  S
O570        C577   1.266       .  A
O571        C585   1.270       .  A
O572        C577   1.261       .  A
O573        C576   1.275       .  A
O574        C586   1.271       .  A
O575        C588   1.262       .  A
C576        O581   1.273       .  A
C576        C801   1.430       .  S
C577        C780   1.446       .  S
O579        C582   1.277       .  A
O580        C582   1.279       .  A
C582        C805   1.434       .  S
O583        C588   1.259       .  A
O584        C586   1.266       .  A
C585        O587   1.266       .  A
C585        C781   1.425       .  S
C588        C788   1.448       .  S
Fe589       O605   2.079       .  S
Fe589       O595   2.061       .  S
Fe589       O602   2.059       .  S
Fe589       O594   2.071       .  S
Fe589       O600   1.970       .  S
Fe590       O593   2.066       .  S
Fe590       O597   2.072       .  S
Fe590       O601   2.079       .  S
Fe590       O606   2.066       .  S
Fe590       O600   1.974       .  S
Fe591       O609   2.081       .  S
Fe591       O596   2.053       .  S
Fe591       O603   2.077       .  S
Fe591       O592   2.069       .  S
Fe591       O600   1.973       .  S
O592        C599   1.272       .  A
O593        C607   1.266       .  A
O594        C599   1.275       .  A
O595        C598   1.261       .  A
O596        C608   1.266       .  A
O597        C610   1.277       .  A
C598        O603   1.266       .  A
C598        C768   1.446       .  S
C599        C773   1.431       .  S
O601        C604   1.263       .  A
O602        C604   1.259       .  A
C604        C792   1.449       .  S
O605        C610   1.279       .  A
O606        C608   1.271       .  A
C607        O609   1.270       .  A
C607        C785   1.446       .  S
C608        C797   1.425       .  S
C610        C772   1.434       .  S
Fe611       O627   2.079       .  S
Fe611       O617   2.061       .  S
Fe611       O624   2.059       .  S
Fe611       O616   2.071       .  S
Fe611       O622   1.970       .  S
Fe612       O615   2.065       .  S
Fe612       O619   2.073       .  S
Fe612       O623   2.079       .  S
Fe612       O628   2.066       .  S
Fe612       O622   1.974       .  S
Fe613       O631   2.082       .  S
Fe613       O618   2.053       .  S
Fe613       O625   2.077       .  S
Fe613       O614   2.069       .  S
Fe613       O622   1.973       .  S
O614        C621   1.272       .  A
O615        C629   1.266       .  A
O616        C621   1.275       .  A
O617        C620   1.261       .  A
O618        C630   1.266       .  A
O619        C632   1.277       .  A
C620        O625   1.266       .  A
C620        C764   1.446       .  S
C621        C776   1.431       .  S
O623        C626   1.263       .  A
O624        C626   1.259       .  A
C626        C816   1.449       .  S
O627        C632   1.279       .  A
O628        C630   1.271       .  A
C629        O631   1.270       .  A
C629        C809   1.446       .  S
C630        C784   1.425       .  S
C632        C769   1.434       .  S
Fe633       O649   2.079       .  S
Fe633       O639   2.061       .  S
Fe633       O646   2.059       .  S
Fe633       O638   2.071       .  S
Fe633       O644   1.970       .  S
Fe634       O637   2.066       .  S
Fe634       O641   2.072       .  S
Fe634       O645   2.079   1_565  S
Fe634       O650   2.066       .  S
Fe634       O644   1.974       .  S
Fe635       O653   2.082       .  S
Fe635       O640   2.053       .  S
Fe635       O647   2.077       .  S
Fe635       O636   2.069       .  S
Fe635       O644   1.973       .  S
O636        C643   1.272       .  A
O637        C651   1.266       .  A
O638        C643   1.275       .  A
O639        C642   1.261       .  A
O640        C652   1.266       .  A
O641        C654   1.277       .  A
C642        O647   1.266       .  A
C642        C777   1.446       .  S
C643        C748   1.431       .  S
O645        C648   1.263   1_545  A
O646        C648   1.259       .  A
C648        C753   1.449   1_565  S
O649        C654   1.279       .  A
O650        C652   1.271       .  A
C651        O653   1.270       .  A
C651        C757   1.446       .  S
C652        C744   1.425       .  S
C654        C749   1.434       .  S
Fe655       O671   2.079       .  S
Fe655       O661   2.061       .  S
Fe655       O668   2.059       .  S
Fe655       O660   2.071       .  S
Fe655       O666   1.970       .  S
Fe656       O659   2.065       .  S
Fe656       O663   2.073       .  S
Fe656       O667   2.079   1_565  S
Fe656       O672   2.066       .  S
Fe656       O666   1.974       .  S
Fe657       O675   2.082       .  S
Fe657       O662   2.053       .  S
Fe657       O669   2.077       .  S
Fe657       O658   2.069       .  S
Fe657       O666   1.973       .  S
O658        C665   1.272       .  A
O659        C673   1.266       .  A
O660        C665   1.275       .  A
O661        C664   1.261       .  A
O662        C674   1.266       .  A
O663        C676   1.277       .  A
C664        O669   1.266       .  A
C664        C796   1.446       .  S
C665        C745   1.431       .  S
O667        C670   1.263   1_545  A
O668        C670   1.259       .  A
C670        C733   1.449   1_565  S
O671        C676   1.279       .  A
O672        C674   1.271       .  A
C673        O675   1.271       .  A
C674        C732   1.425       .  S
C676        C752   1.434       .  S
Fe677       O693   2.060       .  S
Fe677       O683   2.070       .  S
Fe677       O690   2.079       .  S
Fe677       O682   2.061       .  S
Fe677       O688   1.970       .  S
Fe678       O681   2.066       .  S
Fe678       O685   2.077   1_545  S
Fe678       O689   2.074       .  S
Fe678       O694   2.067       .  S
Fe678       O688   1.973       .  S
Fe679       O697   2.053       .  S
Fe679       O684   2.082       .  S
Fe679       O691   2.069       .  S
Fe679       O680   2.077       .  S
Fe679       O688   1.973       .  S
O680        C687   1.266       .  A
O681        C695   1.270       .  A
O682        C687   1.261       .  A
O683        C686   1.275       .  A
O684        C696   1.271       .  A
O685        C698   1.262   1_565  A
C686        O691   1.273       .  A
C686        C725   1.430       .  S
C687        C765   1.446       .  S
O689        C692   1.277       .  A
O690        C692   1.279       .  A
C692        C721   1.434       .  S
O693        C698   1.259       .  A
O694        C696   1.266       .  A
C695        O697   1.266       .  A
C695        C729   1.425       .  S
C696        C756   1.446       .  S
C698        C760   1.448   1_545  S
Fe699       O715   2.060       .  S
Fe699       O705   2.070       .  S
Fe699       O712   2.079       .  S
Fe699       O704   2.061       .  S
Fe699       O710   1.970       .  S
Fe700       O703   2.066       .  S
Fe700       O707   2.077   1_545  S
Fe700       O711   2.074       .  S
Fe700       O716   2.067       .  S
Fe700       O710   1.973       .  S
Fe701       O719   2.053       .  S
Fe701       O706   2.083       .  S
Fe701       O713   2.069       .  S
Fe701       O702   2.077       .  S
Fe701       O710   1.973       .  S
O702        C709   1.266       .  A
O703        C717   1.270       .  A
O704        C709   1.261       .  A
O705        C708   1.275       .  A
O706        C718   1.271       .  A
O707        C720   1.262   1_565  A
C708        O713   1.273       .  A
C708        C728   1.430       .  S
C709        C761   1.446       .  S
O711        C714   1.277       .  A
O712        C714   1.279       .  A
C714        C724   1.434       .  S
O715        C720   1.259       .  A
O716        C718   1.266       .  A
C717        O719   1.266       .  A
C717        C741   1.425       .  S
C718        C736   1.447       .  S
C720        C737   1.448   1_545  S
C721        C722   1.205       .  T
C722        C723   1.412       .  S
C723        C724   1.205       .  T
C725        C726   1.203       .  T
C726        C999   1.408   1_554  S
C727        C728   1.203       .  T
C727        C998   1.408       .  S
C729        C730   1.201       .  T
C731        C732   1.200       .  T
C733        C734   1.214       .  T
C734        C735   1.425       .  S
C735        C736   1.213       .  T
C737        C738   1.213       .  T
C738        C739   1.424       .  S
C739        C740   1.213       .  T
C741        C742   1.200       .  T
C742       C1015   1.404   1_545  S
C743        C744   1.200       .  T
C743       C1014   1.404   1_564  S
C745        C746   1.204       .  T
C746       C1019   1.409       .  S
C747        C748   1.204       .  T
C747       C1018   1.409   1_554  S
C749        C750   1.205       .  T
C750        C751   1.411       .  S
C751        C752   1.205       .  T
C753        C754   1.214       .  T
C754        C755   1.425       .  S
C757        C758   1.213       .  T
C758        C759   1.424       .  S
C759        C760   1.213       .  T
C761        C762   1.213       .  T
C762        C763   1.424       .  S
C763        C764   1.213       .  T
C765        C766   1.213       .  T
C766        C767   1.424       .  S
C767        C768   1.213       .  T
C769        C770   1.205       .  T
C770       C1043   1.411       .  S
C771        C772   1.205       .  T
C771       C1042   1.411   1_554  S
C773        C774   1.204       .  T
C774        C775   1.409       .  S
C775        C776   1.204       .  T
C777        C778   1.213       .  T
C778        C779   1.424       .  S
C779        C780   1.213       .  T
C781        C782   1.200       .  T
C783        C784   1.200       .  T
C785        C786   1.213       .  T
C786        C787   1.424       .  S
C787        C788   1.213       .  T
C789        C790   1.213       .  T
C790        C791   1.425       .  S
C791        C792   1.214       .  T
C793        C794   1.214       .  T
C794        C795   1.425       .  S
C795        C796   1.213       .  T
C797        C798   1.201       .  T
C798        C799   1.404       .  S
C799        C800   1.201       .  T
C801        C802   1.203       .  T
C802        C803   1.408       .  S
C803        C804   1.203       .  T
C805        C806   1.205       .  T
C806       C1079   1.412   1_554  S
C807        C808   1.205       .  T
C807       C1078   1.412       .  S
C810        C811   1.424       .  S
C811        C812   1.213       .  T
C813        C814   1.213       .  T
C814        C815   1.425       .  S
C815        C816   1.214       .  T
Fe817       O833   2.060       .  S
Fe817       O823   2.070       .  S
Fe817       O830   2.079       .  S
Fe817       O822   2.060       .  S
Fe817       O828   1.970       .  S
Fe818       O821   2.066       .  S
Fe818       O825   2.077       .  S
Fe818       O829   2.074       .  S
Fe818       O834   2.067       .  S
Fe818       O828   1.973       .  S
Fe819       O837   2.053       .  S
Fe819       O824   2.082       .  S
Fe819       O831   2.069       .  S
Fe819       O820   2.077       .  S
Fe819       O828   1.973       .  S
O820        C827   1.266       .  A
O821        C835   1.270       .  A
O822        C827   1.261       .  A
O823        C826   1.275       .  A
O824        C836   1.271       .  A
O825        C838   1.262       .  A
C826        O831   1.273       .  A
C826       C1076   1.430       .  S
C827       C1065   1.446       .  S
O829        C832   1.277       .  A
O830        C832   1.279       .  A
C832       C1080   1.434       .  S
O833        C838   1.259       .  A
O834        C836   1.266       .  A
C835        O837   1.266       .  A
C835       C1072   1.425       .  S
C836       C1085   1.447       .  S
C838       C1084   1.448       .  S
Fe839       O855   2.060       .  S
Fe839       O845   2.070       .  S
Fe839       O852   2.079       .  S
Fe839       O844   2.061       .  S
Fe839       O850   1.970       .  S
Fe840       O843   2.066       .  S
Fe840       O847   2.077       .  S
Fe840       O851   2.074       .  S
Fe840       O856   2.067       .  S
Fe840       O850   1.973       .  S
Fe841       O859   2.053       .  S
Fe841       O846   2.082       .  S
Fe841       O853   2.069       .  S
Fe841       O842   2.077       .  S
Fe841       O850   1.973       .  S
O842        C849   1.266       .  A
O843        C857   1.270       .  A
O844        C849   1.261       .  A
O845        C848   1.275       .  A
O846        C858   1.271       .  A
O847        C860   1.262       .  A
C848        O853   1.273       .  A
C848       C1073   1.430       .  S
C849       C1052   1.446       .  S
O851        C854   1.277       .  A
O852        C854   1.279       .  A
C854       C1077   1.434       .  S
O855        C860   1.259       .  A
O856        C858   1.266       .  A
C857        O859   1.266       .  A
C857       C1053   1.425       .  S
C860       C1060   1.448       .  S
Fe861       O877   2.079       .  S
Fe861       O867   2.061       .  S
Fe861       O874   2.059       .  S
Fe861       O866   2.071       .  S
Fe861       O872   1.970       .  S
Fe862       O865   2.066       .  S
Fe862       O869   2.072       .  S
Fe862       O873   2.079       .  S
Fe862       O878   2.066       .  S
Fe862       O872   1.974       .  S
Fe863       O881   2.081       .  S
Fe863       O868   2.053       .  S
Fe863       O875   2.077       .  S
Fe863       O864   2.069       .  S
Fe863       O872   1.973       .  S
O864        C871   1.272       .  A
O865        C879   1.266       .  A
O866        C871   1.275       .  A
O867        C870   1.261       .  A
O868        C880   1.266       .  A
O869        C882   1.277       .  A
C870        O875   1.266       .  A
C870       C1040   1.446       .  S
C871       C1045   1.431       .  S
O873        C876   1.263       .  A
O874        C876   1.259       .  A
C876       C1064   1.449       .  S
O877        C882   1.279       .  A
O878        C880   1.271       .  A
C879        O881   1.270       .  A
C879       C1057   1.446       .  S
C880       C1069   1.425       .  S
C882       C1044   1.434       .  S
Fe883       O899   2.079       .  S
Fe883       O889   2.061       .  S
Fe883       O896   2.059       .  S
Fe883       O888   2.071       .  S
Fe883       O894   1.970       .  S
Fe884       O887   2.065       .  S
Fe884       O891   2.073       .  S
Fe884       O895   2.079       .  S
Fe884       O900   2.066       .  S
Fe884       O894   1.974       .  S
Fe885       O903   2.082       .  S
Fe885       O890   2.053       .  S
Fe885       O897   2.077       .  S
Fe885       O886   2.069       .  S
Fe885       O894   1.973       .  S
O886        C893   1.272       .  A
O887        C901   1.266       .  A
O888        C893   1.275       .  A
O889        C892   1.261       .  A
O890        C902   1.266       .  A
O891        C904   1.277       .  A
C892        O897   1.266       .  A
C892       C1036   1.446       .  S
C893       C1048   1.431       .  S
O895        C898   1.263       .  A
O896        C898   1.259       .  A
C898       C1088   1.449       .  S
O899        C904   1.279       .  A
O900        C902   1.271       .  A
C901        O903   1.270       .  A
C901       C1081   1.446       .  S
C902       C1056   1.425       .  S
C904       C1041   1.434       .  S
Fe905       O921   2.079       .  S
Fe905       O911   2.061       .  S
Fe905       O918   2.059       .  S
Fe905       O910   2.071       .  S
Fe905       O916   1.970       .  S
Fe906       O909   2.066       .  S
Fe906       O913   2.072       .  S
Fe906       O917   2.079   1_565  S
Fe906       O922   2.066       .  S
Fe906       O916   1.974       .  S
Fe907       O925   2.082       .  S
Fe907       O912   2.053       .  S
Fe907       O919   2.077       .  S
Fe907       O908   2.069       .  S
Fe907       O916   1.973       .  S
O908        C915   1.272       .  A
O909        C923   1.266       .  A
O910        C915   1.275       .  A
O911        C914   1.261       .  A
O912        C924   1.266       .  A
O913        C926   1.277       .  A
C914        O919   1.266       .  A
C914       C1049   1.446       .  S
C915       C1020   1.431       .  S
O917        C920   1.263   1_545  A
O918        C920   1.259       .  A
C920       C1025   1.449   1_565  S
O921        C926   1.279       .  A
O922        C924   1.271       .  A
C923        O925   1.270       .  A
C923       C1029   1.446       .  S
C924       C1016   1.425       .  S
C926       C1021   1.434       .  S
Fe927       O943   2.079       .  S
Fe927       O933   2.061       .  S
Fe927       O940   2.059       .  S
Fe927       O932   2.071       .  S
Fe927       O938   1.970       .  S
Fe928       O931   2.065       .  S
Fe928       O935   2.073       .  S
Fe928       O939   2.079   1_565  S
Fe928       O944   2.066       .  S
Fe928       O938   1.974       .  S
Fe929       O947   2.082       .  S
Fe929       O934   2.053       .  S
Fe929       O941   2.077       .  S
Fe929       O930   2.069       .  S
Fe929       O938   1.973       .  S
O930        C937   1.272       .  A
O931        C945   1.266       .  A
O932        C937   1.275       .  A
O933        C936   1.261       .  A
O934        C946   1.266       .  A
O935        C948   1.277       .  A
C936        O941   1.266       .  A
C936       C1068   1.446       .  S
C937       C1017   1.431       .  S
O939        C942   1.263   1_545  A
O940        C942   1.259       .  A
C942       C1005   1.449   1_565  S
O943        C948   1.279       .  A
O944        C946   1.271       .  A
C945        O947   1.271       .  A
C946       C1004   1.425       .  S
C948       C1024   1.434       .  S
Fe949       O965   2.060       .  S
Fe949       O955   2.070       .  S
Fe949       O962   2.079       .  S
Fe949       O954   2.061       .  S
Fe949       O960   1.970       .  S
Fe950       O953   2.066       .  S
Fe950       O957   2.077   1_545  S
Fe950       O961   2.074       .  S
Fe950       O966   2.067       .  S
Fe950       O960   1.973       .  S
Fe951       O969   2.053       .  S
Fe951       O956   2.082       .  S
Fe951       O963   2.069       .  S
Fe951       O952   2.077       .  S
Fe951       O960   1.973       .  S
O952        C959   1.266       .  A
O953        C967   1.270       .  A
O954        C959   1.261       .  A
O955        C958   1.275       .  A
O956        C968   1.271       .  A
O957        C970   1.262   1_565  A
C958        O963   1.273       .  A
C958        C997   1.430       .  S
C959       C1037   1.446       .  S
O961        C964   1.277       .  A
O962        C964   1.279       .  A
C964        C993   1.434       .  S
O965        C970   1.259       .  A
O966        C968   1.266       .  A
C967        O969   1.266       .  A
C967       C1001   1.425       .  S
C968       C1028   1.446       .  S
C970       C1032   1.448   1_545  S
Fe971       O987   2.060       .  S
Fe971       O977   2.070       .  S
Fe971       O984   2.079       .  S
Fe971       O976   2.061       .  S
Fe971       O982   1.970       .  S
Fe972       O975   2.066       .  S
Fe972       O979   2.077   1_545  S
Fe972       O983   2.074       .  S
Fe972       O988   2.067       .  S
Fe972       O982   1.973       .  S
Fe973       O991   2.053       .  S
Fe973       O978   2.083       .  S
Fe973       O985   2.069       .  S
Fe973       O974   2.077       .  S
Fe973       O982   1.973       .  S
O974        C981   1.266       .  A
O975        C989   1.270       .  A
O976        C981   1.261       .  A
O977        C980   1.275       .  A
O978        C990   1.271       .  A
O979        C992   1.262   1_565  A
C980        O985   1.273       .  A
C980       C1000   1.430       .  S
C981       C1033   1.446       .  S
O983        C986   1.277       .  A
O984        C986   1.279       .  A
C986        C996   1.434       .  S
O987        C992   1.259       .  A
O988        C990   1.266       .  A
C989        O991   1.266       .  A
C989       C1013   1.425       .  S
C990       C1008   1.447       .  S
C992       C1009   1.448   1_545  S
C993        C994   1.205       .  T
C994        C995   1.412       .  S
C995        C996   1.205       .  T
C997        C998   1.203       .  T
C999       C1000   1.203       .  T
C1001      C1002   1.201       .  T
C1003      C1004   1.200       .  T
C1005      C1006   1.214       .  T
C1006      C1007   1.425       .  S
C1007      C1008   1.213       .  T
C1009      C1010   1.213       .  T
C1010      C1011   1.424       .  S
C1011      C1012   1.213       .  T
C1013      C1014   1.200       .  T
C1015      C1016   1.200       .  T
C1017      C1018   1.204       .  T
C1019      C1020   1.204       .  T
C1021      C1022   1.205       .  T
C1022      C1023   1.411       .  S
C1023      C1024   1.205       .  T
C1025      C1026   1.214       .  T
C1026      C1027   1.425       .  S
C1029      C1030   1.213       .  T
C1030      C1031   1.424       .  S
C1031      C1032   1.213       .  T
C1033      C1034   1.213       .  T
C1034      C1035   1.424       .  S
C1035      C1036   1.213       .  T
C1037      C1038   1.213       .  T
C1038      C1039   1.424       .  S
C1039      C1040   1.213       .  T
C1041      C1042   1.205       .  T
C1043      C1044   1.205       .  T
C1045      C1046   1.204       .  T
C1046      C1047   1.409       .  S
C1047      C1048   1.204       .  T
C1049      C1050   1.213       .  T
C1050      C1051   1.424       .  S
C1051      C1052   1.213       .  T
C1053      C1054   1.200       .  T
C1055      C1056   1.200       .  T
C1057      C1058   1.213       .  T
C1058      C1059   1.424       .  S
C1059      C1060   1.213       .  T
C1061      C1062   1.213       .  T
C1062      C1063   1.425       .  S
C1063      C1064   1.214       .  T
C1065      C1066   1.214       .  T
C1066      C1067   1.425       .  S
C1067      C1068   1.213       .  T
C1069      C1070   1.200       .  T
C1070      C1071   1.404       .  S
C1071      C1072   1.201       .  T
C1073      C1074   1.203       .  T
C1074      C1075   1.408       .  S
C1075      C1076   1.203       .  T
C1077      C1078   1.205       .  T
C1079      C1080   1.205       .  T
C1082      C1083   1.424       .  S
C1083      C1084   1.213       .  T
C1085      C1086   1.213       .  T
C1086      C1087   1.425       .  S
C1087      C1088   1.214       .  T
