geometry optimzed in LAMMPS
_audit_creation_date              2020-12-01 
_audit_creation_method            'lammps2cif' 
_symmetry_space_group_name_H-M    'P1' 
_symmetry_Int_Tables_number       1 
_symmetry_cell_setting            triclinic 
loop_ 
_symmetry_equiv_pos_as_xyz 
  x,y,z 
_cell_length_a                    46.32808134 
_cell_length_b                    31.689861620517583 
_cell_length_c                    43.72200945019075 
_cell_angle_alpha                 89.99989794483878 
_cell_angle_beta                  89.99826173223371 
_cell_angle_gamma                 89.99967253212685 
loop_ 
_atom_site_label 
_atom_site_type_symbol 
_atom_site_fract_x 
_atom_site_fract_y 
_atom_site_fract_z 
_atom_site_charge 
O1          O  0.14387692  0.85043592  0.40217021    -0.83800
O2          O  0.12427417  0.92706292  0.38127717    -0.80900
C3          C  0.12544905  0.96620497  0.37624572     0.99600
O4          O  0.14881287  0.98408268  0.36921767    -0.80900
O5          O  0.18694021  0.98057799  0.41781364    -0.83500
C6          C  0.20538056  0.96551812  0.43587825     1.04200
O7          O  0.21851522  0.93194288  0.42989518    -0.76300
O8          O  0.17502754  0.87545384  0.43555711    -0.76500
C9          C  0.15151429  0.85730654  0.42984313     1.04100
O10         O  0.17847782  0.84375556  0.34398221    -0.83800
O11         O  0.15407773  0.91936581  0.32415523    -0.80900
C12         C  0.17299032  0.94419084  0.31316828     0.99700
O13         O  0.19346700  0.95753307  0.32936939    -0.80900
O14         O  0.23271796  0.96004488  0.37605614    -0.83500
C15         C  0.24891581  0.92812122  0.37347364     1.04100
O16         O  0.23925449  0.89120250  0.37729737    -0.76300
O17         O  0.19899307  0.82699035  0.38700590    -0.76500
C18         C  0.19520778  0.82023490  0.35903165     1.04100
Cr19       Cr  0.15253900  0.88640355  0.36408824     1.93700
Cr20       Cr  0.18983149  0.96623772  0.37375861     1.93200
Cr21       Cr  0.20600090  0.88335773  0.40534854     1.39100
O22         O  0.18256579  0.91221321  0.38092325    -1.21600
O23         O  0.33676129  0.63739618  0.40212782    -0.83800
O24         O  0.35637360  0.56072133  0.38130979    -0.80900
C25         C  0.35519784  0.52156825  0.37631759     0.99600
O26         O  0.33183710  0.50367974  0.36929184    -0.80900
O27         O  0.29368018  0.50722693  0.41786153    -0.83500
C28         C  0.27523099  0.52231775  0.43590351     1.04200
O29         O  0.26212566  0.55590881  0.42990569    -0.76300
O30         O  0.30562506  0.61239993  0.43553985    -0.76500
C31         C  0.32912280  0.63058083  0.42980785     1.04100
O32         O  0.30217047  0.64397110  0.34393838    -0.83800
O33         O  0.32659230  0.56833481  0.32417680    -0.80900
C34         C  0.30768249  0.54349884  0.31320204     0.99700
O35         O  0.28719895  0.53018307  0.32940235    -0.80900
O36         O  0.24792874  0.52773419  0.37607377    -0.83500
C37         C  0.23173290  0.55965989  0.37348172     1.04100
O38         O  0.24139790  0.59657959  0.37728760    -0.76300
O39         O  0.28166875  0.66079445  0.38695827    -0.76500
C40         C  0.28544658  0.66751593  0.35897801     1.04100
Cr41       Cr  0.32811228  0.60135600  0.36408068     1.93700
Cr42       Cr  0.29081576  0.52153042  0.37379806     1.93200
Cr43       Cr  0.27465138  0.60445510  0.40533476     1.39100
O44         O  0.29808506  0.57556389  0.38093160    -1.21600
O45         O  0.14390686  0.13743633  0.08894107    -0.83800
O46         O  0.12429555  0.06076346  0.10976138    -0.80900
C47         C  0.12547085  0.02160683  0.11474549     0.99600
O48         O  0.14883346  0.00371046  0.12174574    -0.80900
O49         O  0.18696629  0.00729259  0.07315531    -0.83500
C50         C  0.20540931  0.02239524  0.05510855     1.04200
O51         O  0.21853308  0.05596217  0.06112430    -0.76300
O52         O  0.17504075  0.11246288  0.05551645    -0.76500
C53         C  0.15154256  0.13063508  0.06125648     1.04100
O54         O  0.17851962  0.14399349  0.14712196    -0.83800
O55         O  0.15410690  0.06835064  0.16688123    -0.80900
C56         C  0.17301327  0.04349700  0.17784148     0.99700
O57         O  0.19348617  0.03017175  0.16162449    -0.80900
O58         O  0.23274092  0.02775453  0.11493343    -0.83500
C59         C  0.24893900  0.05967361  0.11753780     1.04100
O60         O  0.23927601  0.09660029  0.11374886    -0.76300
O61         O  0.19901113  0.16083112  0.10410058    -0.76500
C62         C  0.19524080  0.16754153  0.13208170     1.04100
Cr63       Cr  0.15256879  0.10138673  0.12698231     1.93700
Cr64       Cr  0.18985329  0.02155701  0.11722480     1.93200
Cr65       Cr  0.20601877  0.10449733  0.08571159     1.39100
O66         O  0.18258805  0.07559772  0.11011394    -1.21600
O67         O  0.33683204  0.35042499  0.08889645    -0.83800
O68         O  0.35644123  0.42704731  0.10978355    -0.80900
C69         C  0.35526919  0.46619006  0.11481652     0.99600
O70         O  0.33191060  0.48406825  0.12185896    -0.80900
O71         O  0.29378023  0.48058692  0.07326810    -0.83500
C72         C  0.27533436  0.46553343  0.05520363     1.04200
O73         O  0.26220215  0.43195819  0.06118167    -0.76300
O74         O  0.30568301  0.37545560  0.05551285    -0.76500
C75         C  0.32919526  0.35730596  0.06122444     1.04100
O76         O  0.30223735  0.34374649  0.14708570    -0.83800
O77         O  0.32664608  0.41934947  0.16691108    -0.80900
C78         C  0.30773225  0.44416641  0.17790118     0.99700
O79         O  0.28725388  0.45751176  0.16170495    -0.80900
O80         O  0.24800372  0.46005346  0.11502491    -0.83500
C81         C  0.23180449  0.42813468  0.11761171     1.04100
O82         O  0.24146026  0.39121330  0.11377964    -0.76300
O83         O  0.28171392  0.32699305  0.10406353    -0.76500
C84         C  0.28550175  0.32023196  0.13203800     1.04100
Cr85       Cr  0.32817721  0.38639146  0.12697786     1.93700
Cr86       Cr  0.29089012  0.46623334  0.11731956     1.93200
Cr87       Cr  0.27471108  0.38336371  0.08572387     1.39100
O88         O  0.29815090  0.41220945  0.11014816    -1.21600
O89         O  0.42505680  0.87545293  0.05543715    -0.83800
O90         O  0.46855045  0.93193705  0.06109710    -0.80900
C91         C  0.45544691  0.96553853  0.05512772     0.99600
O92         O  0.43699705  0.98060323  0.07318341    -0.80900
O93         O  0.39884616  0.98410381  0.12176099    -0.83500
C94         C  0.37548343  0.96623365  0.11471501     1.04200
O95         O  0.37430592  0.92709108  0.10968660    -0.76300
O96         O  0.39390285  0.85044389  0.08882450    -0.76500
C97         C  0.40154438  0.85730874  0.06115045     1.04100
O98         O  0.44901286  0.82699948  0.10400397    -0.83800
O99         O  0.98928194  0.89120271  0.11369948    -0.80900
C100        C  0.99894570  0.92812065  0.11752699     0.99700
O101        O  0.48275081  0.96004543  0.11494923    -0.80900
O102        O  0.44348709  0.95753118  0.16162329    -0.83500
C103        C  0.42299828  0.94420836  0.17781517     1.04100
O104        O  0.40408060  0.91940103  0.16682159    -0.76300
O105        O  0.42848454  0.84378456  0.14701889    -0.76500
C106        C  0.44522127  0.82025621  0.13197967     1.04100
Cr107      Cr  0.45602838  0.88335891  0.08564817     1.93700
Cr108      Cr  0.43986546  0.96624777  0.11723549     1.93200
Cr109      Cr  0.40255657  0.88642819  0.12689591     1.39100
O110        O  0.43259247  0.91222613  0.11006619    -1.21600
O111        O  0.05570140  0.61243304  0.05561323    -0.83800
O112        O  0.01222308  0.55591207  0.06123085    -0.80900
C113        C  0.02537459  0.52236822  0.05521408     0.99600
O114        O  0.04381232  0.50728066  0.07327219    -0.80900
O115        O  0.08192278  0.50373052  0.12187898    -0.83500
C116        C  0.10528357  0.52163682  0.11488002     1.04200
O117        O  0.10645083  0.56078979  0.10988934    -0.76300
O118        O  0.08682750  0.63743493  0.08903389    -0.76500
C119        C  0.07919760  0.63061300  0.06135001     1.04100
O120        O  0.03171148  0.66081806  0.10417495    -0.83800
O121        O  0.49146370  0.59657011  0.11384486    -0.80900
C122        C  0.48180910  0.55964161  0.11763939     0.99700
O123        O  0.49801356  0.52772764  0.11503551    -0.80900
O124        O  0.03725245  0.53018468  0.16173601    -0.83500
C125        C  0.05771182  0.54353477  0.17795725     1.04100
O126        O  0.07661596  0.56839810  0.16699829    -0.76300
O127        O  0.05219780  0.64402170  0.14720630    -0.76500
C128        C  0.03547661  0.66755514  0.13215395     1.04100
Cr129      Cr  0.02472074  0.60446911  0.08580643     1.93700
Cr130      Cr  0.04090210  0.52155471  0.11733956     1.93200
Cr131      Cr  0.07816231  0.60141022  0.12708824     1.39100
O132        O  0.04815433  0.57559649  0.11022046    -1.21600
O133        O  0.42502132  0.11239614  0.43546587    -0.83800
O134        O  0.46850971  0.05588831  0.42982625    -0.80900
C135        C  0.45537673  0.02232504  0.43583325     0.99600
O136        O  0.43693187  0.00724231  0.41778130    -0.80900
O137        O  0.39879885  0.00371030  0.36919643    -0.83500
C138        C  0.37543959  0.02160593  0.37621698     1.04200
O139        O  0.37426979  0.06075977  0.38121221    -0.76300
O140        O  0.39389121  0.13741114  0.40205514    -0.76500
C141        C  0.40152474  0.13058030  0.42973564     1.04100
O142        O  0.44899190  0.16079938  0.38690072    -0.83800
O143        O  0.98924934  0.09656984  0.37721307    -0.80900
C144        C  0.99890736  0.05964555  0.37340368     0.99700
O145        O  0.48270827  0.02772641  0.37600476    -0.80900
O146        O  0.44345375  0.03019772  0.32932539    -0.83500
C147        C  0.42298171  0.04353453  0.31311703     1.04100
O148        O  0.40407445  0.06838093  0.32408888    -0.76300
O149        O  0.42849857  0.14400403  0.34387265    -0.76500
C150        C  0.44522083  0.16753690  0.35892224     1.04100
Cr151      Cr  0.45599733  0.10444975  0.40526279     1.93700
Cr152      Cr  0.43982025  0.02154217  0.37371849     1.93200
Cr153      Cr  0.40254445  0.10138802  0.36399938     1.39100
O154        O  0.43256161  0.07557784  0.38085254    -1.21600
O155        O  0.05561952  0.37541800  0.43565253    -0.83800
O156        O  0.01211964  0.43189105  0.43000180    -0.80900
C157        C  0.02522677  0.46548435  0.43598448     0.99600
O158        O  0.04367396  0.48056217  0.41793179    -0.80900
O159        O  0.08182247  0.48409929  0.36935112    -0.83500
C160        C  0.10518975  0.46622850  0.37637979     1.04200
O161        O  0.10637036  0.42708457  0.38140398    -0.76300
O162        O  0.08677841  0.35042961  0.40226149    -0.76500
C163        C  0.07913366  0.35727909  0.42993728     1.04100
O164        O  0.03167212  0.32697531  0.38707904    -0.83800
O165        O  0.49139560  0.39117381  0.37739175    -0.80900
C166        C  0.48172763  0.42809036  0.37357505     0.99700
O167        O  0.49791932  0.46001897  0.37615898    -0.80900
O168        O  0.03718642  0.45754603  0.32948108    -0.83500
C169        C  0.05767405  0.44422885  0.31328426     1.04100
O170        O  0.07658988  0.41940985  0.32427168    -0.76300
O171        O  0.05219446  0.34378051  0.34406572    -0.76500
C172        C  0.03546414  0.32024403  0.35909999     1.04100
Cr173      Cr  0.02464903  0.38332704  0.40544197     1.93700
Cr174      Cr  0.04080502  0.46623346  0.37387414     1.93200
Cr175      Cr  0.07811991  0.38642323  0.36419327     1.39100
O176        O  0.04808229  0.41220923  0.38102917    -1.21600
O177        O  0.30554396  0.11272807  0.55543455    -0.83800
O178        O  0.26201211  0.05630771  0.56112000    -0.80900
C179        C  0.27508637  0.02268311  0.55514026     0.99600
O180        O  0.29353608  0.00758910  0.57318149    -0.80900
O181        O  0.33171618  0.00402252  0.62173499    -0.83500
C182        C  0.35508876  0.02185997  0.61468183     1.04200
O183        O  0.35628926  0.06100108  0.60964935    -0.76300
O184        O  0.33673430  0.13768197  0.58880370    -0.76500
C185        C  0.32907202  0.13084211  0.56113468     1.04100
O186        O  0.28165042  0.16120584  0.60402270    -0.83800
O187        O  0.24133801  0.09706249  0.61373883    -0.80900
C188        C  0.23164874  0.06015814  0.61756499     0.99700
O189        O  0.24782165  0.02821014  0.61498000    -0.80900
O190        O  0.28711350  0.03065802  0.66162861    -0.83500
C191        C  0.30761897  0.04395655  0.67780880     1.04100
O192        O  0.32654815  0.06873187  0.66680309    -0.76300
O193        O  0.30219021  0.14438312  0.64702197    -0.76500
C194        C  0.28546202  0.16793646  0.63199606     1.04100
Cr195      Cr  0.27458353  0.10486120  0.58566667     1.93700
Cr196      Cr  0.29070486  0.02194210  0.61723737     1.93200
Cr197      Cr  0.32807595  0.10170431  0.62687809     1.39100
O198        O  0.29801247  0.07595395  0.61006645    -1.21600
O199        O  0.17506938  0.37573839  0.55559109    -0.83800
O200        O  0.21855615  0.43224650  0.56119342    -0.80900
C201        C  0.20542292  0.46580341  0.55516921     0.99600
O202        O  0.18697913  0.48090630  0.57321541    -0.80900
O203        O  0.14885577  0.48450367  0.62181589    -0.83500
C204        C  0.12549157  0.46660369  0.61482207     1.04200
O205        O  0.12431810  0.42744789  0.60984235    -0.76300
O206        O  0.14392925  0.35077946  0.58901597    -0.76500
C207        C  0.15156890  0.35757382  0.56133121     1.04100
O208        O  0.19904038  0.32738200  0.60417636    -0.83800
O209        O  0.23930042  0.39161988  0.61382500    -0.80900
C210        C  0.24896126  0.42855055  0.61760543     0.99700
O211        O  0.23276247  0.46046526  0.61499117    -0.80900
O212        O  0.19351581  0.45805364  0.66168747    -0.83500
C213        C  0.17305348  0.44471340  0.67791259     1.04100
O214        O  0.15414426  0.41985977  0.66695877    -0.76300
O215        O  0.17854538  0.34421763  0.64719612    -0.76500
C216        C  0.19526661  0.32066876  0.63215654     1.04100
Cr217      Cr  0.20604533  0.38371372  0.58578606     1.93700
Cr218      Cr  0.18987457  0.46665764  0.61728771     1.93200
Cr219      Cr  0.15259527  0.38682597  0.62705843     1.39100
O220        O  0.18261234  0.41261429  0.61018552    -1.21600
O221        O  0.30559093  0.87583670  0.93548962    -0.83800
O222        O  0.26210270  0.93234056  0.92984685    -0.80900
C223        C  0.27521892  0.96592176  0.93584722     0.99600
O224        O  0.29366625  0.98100933  0.91780060    -0.80900
O225        O  0.33181138  0.98455036  0.86922064    -0.83500
C226        C  0.35517224  0.96666605  0.87625291     1.04200
O227        O  0.35634730  0.92751598  0.88125485    -0.76300
O228        O  0.33673635  0.85084587  0.90208408    -0.76500
C229        C  0.32909067  0.85765758  0.92976301     1.04100
O230        O  0.28163550  0.82744387  0.88690990    -0.83800
O231        O  0.24137067  0.89166458  0.87722980    -0.80900
C232        C  0.23170684  0.92858722  0.87342648     0.99700
O233        O  0.24790346  0.96050842  0.87602282    -0.80900
O234        O  0.28716593  0.95803631  0.82934649    -0.83500
C235        C  0.30764508  0.94470724  0.81314237     1.04100
O236        O  0.32656000  0.91988268  0.82412114    -0.76300
O237        O  0.30215065  0.84425188  0.84389364    -0.76500
C238        C  0.28542324  0.82071326  0.85893453     1.04100
Cr239      Cr  0.27462162  0.88378658  0.90528077     1.93700
Cr240      Cr  0.29079135  0.96670236  0.87373890     1.93200
Cr241      Cr  0.32808723  0.88687486  0.86403117     1.39100
O242        O  0.29805893  0.91266970  0.88087731    -1.21600
O243        O  0.17515736  0.61274774  0.93564434    -0.83800
O244        O  0.21869877  0.55634380  0.92996978    -0.80900
C245        C  0.20562606  0.52271847  0.93594922     0.99600
O246        O  0.18718334  0.50761681  0.91790320    -0.80900
O247        O  0.14901200  0.50403242  0.86934041    -0.83500
C248        C  0.12563287  0.52186661  0.87637997     1.04200
O249        O  0.12442704  0.56100521  0.88141431    -0.76300
O250        O  0.14396926  0.63769214  0.90226876    -0.76500
C251        C  0.15162954  0.63085811  0.92994109     1.04100
O252        O  0.19905097  0.66123234  0.88706166    -0.83800
O253        O  0.23937713  0.59710237  0.87735691    -0.80900
C254        C  0.24907363  0.56020297  0.87353756     0.99700
O255        O  0.23290340  0.52824787  0.87611270    -0.80900
O256        O  0.19361572  0.53067143  0.82945157    -0.83500
C257        C  0.17311088  0.54396249  0.81326752     1.04100
O258        O  0.15417998  0.56874120  0.82426824    -0.76300
O259        O  0.17852535  0.64440014  0.84405701    -0.76500
C260        C  0.19524591  0.66795918  0.85908618     1.04100
Cr261      Cr  0.20612382  0.60489077  0.90541921     1.93700
Cr262      Cr  0.19002048  0.52196456  0.87384596     1.93200
Cr263      Cr  0.15264025  0.60171589  0.86419446     1.39100
O264        O  0.18270410  0.57597484  0.88101343    -1.21600
O265        O  0.08673522  0.85089921  0.58893527    -0.83800
O266        O  0.10630189  0.92759951  0.60975463    -0.80900
C267        C  0.10510481  0.96675256  0.61474852     0.99600
O268        O  0.08173049  0.98461506  0.62175759    -0.80900
O269        O  0.04357649  0.98098904  0.57318321    -0.83500
C270        C  0.02513663  0.96586606  0.55514479     1.04200
O271        O  0.01204316  0.93227019  0.56115808    -0.76300
O272        O  0.05557208  0.87583018  0.55552664    -0.76500
C273        C  0.07908265  0.85768590  0.56125442     1.04100
O274        O  0.05214904  0.84428566  0.64713209    -0.83800
O275        O  0.07651550  0.91995560  0.66688692    -0.80900
C276        C  0.05759464  0.94477522  0.67785980     0.99700
O277        O  0.03710800  0.95807753  0.66165384    -0.80900
O278        O  0.49783363  0.96044993  0.61497922    -0.83500
C279        C  0.48165596  0.92850849  0.61757746     1.04100
O280        O  0.49134392  0.89159587  0.61378764    -0.76300
O281        O  0.03165154  0.82742555  0.60411984    -0.76500
C282        C  0.03543714  0.82071749  0.63210028     1.04100
Cr283      Cr  0.07806247  0.88693177  0.62698351     1.93700
Cr284      Cr  0.04071905  0.96670904  0.61725298     1.93200
Cr285      Cr  0.02459923  0.88375037  0.58573710     1.39100
O286        O  0.04801908  0.91268035  0.61013144    -1.21600
O287        O  0.39392561  0.63778666  0.58886850    -0.83800
O288        O  0.37432406  0.56114749  0.60973909    -0.80900
C289        C  0.37549937  0.52200382  0.61477208     0.99600
O290        O  0.39886055  0.50413458  0.62181905    -0.80900
O291        O  0.43700394  0.50763484  0.57323415    -0.83500
C292        C  0.45545548  0.52269524  0.55517856     1.04200
O293        O  0.46857094  0.55628544  0.56115502    -0.76300
O294        O  0.42508978  0.61278489  0.55548778    -0.76500
C295        C  0.40157435  0.63092787  0.56119767     1.04100
O296        O  0.42850150  0.64445628  0.64706642    -0.83800
O297        O  0.40410564  0.56884517  0.66687526    -0.80900
C298        C  0.42302619  0.54404150  0.67786828     0.99700
O299        O  0.44350706  0.53070156  0.66167311    -0.80900
O300        O  0.48276586  0.52817204  0.61499721    -0.83500
C301        C  0.99896384  0.56009317  0.61758506     1.04100
O302        O  0.98930268  0.59701315  0.61376209    -0.76300
O303        O  0.44904355  0.66122895  0.60405622    -0.76500
C304        C  0.44524184  0.66797956  0.63202877     1.04100
Cr305      Cr  0.40257659  0.60180941  0.62694522     1.93700
Cr306      Cr  0.43987986  0.52198355  0.61728675     1.93200
Cr307      Cr  0.45605454  0.60486778  0.58570424     1.39100
O308        O  0.43261217  0.57600707  0.61011862    -1.21600
O309        O  0.08675122  0.13780759  0.90218996    -0.83800
O310        O  0.10633830  0.06115452  0.88132593    -0.80900
C311        C  0.10515563  0.02201138  0.87630191     0.99600
O312        O  0.08178803  0.00414302  0.86927510    -0.80900
O313        O  0.04364717  0.00769169  0.91786429    -0.83500
C314        C  0.02520195  0.02276978  0.93591868     1.04200
O315        O  0.01208809  0.05635843  0.92993091    -0.76300
O316        O  0.05558631  0.11283109  0.93558013    -0.76500
C317        C  0.07910409  0.13096359  0.92986415     1.04100
O318        O  0.05216631  0.14446867  0.84399493    -0.83800
O319        O  0.07654758  0.06883932  0.82419540    -0.80900
C320        C  0.05762638  0.04402732  0.81321142     0.99700
O321        O  0.03714595  0.03070052  0.82941326    -0.80900
O322        O  0.49788619  0.02822922  0.87609602    -0.83500
C323        C  0.48169505  0.06015734  0.87350639     1.04100
O324        O  0.49136413  0.09707473  0.87731834    -0.76300
O325        O  0.03164177  0.16127150  0.88700766    -0.76500
C326        C  0.03543633  0.16800672  0.85903081     1.04100
Cr327      Cr  0.07808795  0.10182028  0.86411949     1.93700
Cr328      Cr  0.04077166  0.02201375  0.87380556     1.93200
Cr329      Cr  0.02461706  0.10492130  0.90536959     1.39100
O330        O  0.04805018  0.07603791  0.88095737    -1.21600
O331        O  0.39398993  0.35095048  0.90214970    -0.83800
O332        O  0.37442467  0.42766144  0.88134586    -0.80900
C333        C  0.37562462  0.46681214  0.87634549     0.99600
O334        O  0.39899694  0.48466299  0.86930809    -0.80900
O335        O  0.43718092  0.48105657  0.91785480    -0.83500
C336        C  0.45562836  0.46593350  0.93588621     1.04200
O337        O  0.46870074  0.43231891  0.92988303    -0.76300
O338        O  0.42516090  0.37589435  0.93554386    -0.76500
C339        C  0.40164930  0.35774391  0.92982627     1.04100
O340        O  0.42854376  0.34432641  0.84393893    -0.83800
O341        O  0.40417064  0.41999643  0.82419430    -0.80900
C342        C  0.42309497  0.44479500  0.81320389     0.99700
O343        O  0.44359695  0.45808218  0.82939150    -0.80900
O344        O  0.48289432  0.46047118  0.87603972    -0.83500
C345        C  0.99906695  0.42852330  0.87344702     1.04100
O346        O  0.98937433  0.39161593  0.87725393    -0.76300
O347        O  0.44905591  0.32746808  0.88694465    -0.76500
C348        C  0.44525902  0.32075675  0.85896720     1.04100
Cr349      Cr  0.40264589  0.38698062  0.86409921     1.93700
Cr350      Cr  0.44000939  0.46674502  0.87378966     1.93200
Cr351      Cr  0.45612607  0.38379381  0.90531917     1.39100
O352        O  0.43270203  0.41272381  0.88093052    -1.21600
C353        C  0.01912617  0.20172750  0.84505916    -0.17000
C354        C  0.50143177  0.22884449  0.83951457     0.07100
C355        C  0.47924691  0.25988945  0.83948439     0.08900
C356        C  0.46155407  0.28702127  0.84499212    -0.17800
C357        C  0.42016035  0.52710305  0.70845130    -0.17000
C358        C  0.41904431  0.50719999  0.73212526     0.07100
C359        C  0.41906413  0.48170344  0.75897251     0.08900
C360        C  0.42020959  0.46178240  0.78263796    -0.17800
C361        C  0.06049123  0.02707095  0.78263064    -0.17000
C362        C  0.06161118  0.00716715  0.75895498     0.07100
C363        C  0.06159940  0.98167914  0.73210046     0.08900
C364        C  0.06046349  0.96176479  0.70842986    -0.17800
C365        C  0.46155269  0.70170204  0.64599841    -0.17000
C366        C  0.47924878  0.72881913  0.65154279     0.07100
C367        C  0.50143496  0.75985928  0.65157532     0.08900
C368        C  0.01913282  0.78698806  0.64607071    -0.17800
C369        C  0.27933378  0.55265284  0.87005557    -0.17000
C370        C  0.30314134  0.53746649  0.87107442     0.07100
C371        C  0.32870178  0.51372798  0.87438729     0.08900
C372        C  0.34982538  0.49176231  0.87666071    -0.17800
C373        C  0.09983380  0.49691353  0.87665130    -0.17000
C374        C  0.07870503  0.47496621  0.87434122     0.07100
C375        C  0.05313745  0.45125312  0.87099601     0.08900
C376        C  0.02932610  0.43607792  0.86996368    -0.17800
C377        C  0.38098334  0.99158714  0.87656751    -0.17000
C378        C  0.40210249  0.01356095  0.87430319     0.07100
C379        C  0.42764813  0.03733467  0.87100916     0.08900
C380        C  0.45144380  0.05256135  0.87000882    -0.17800
C381        C  0.20145509  0.93619269  0.86993564    -0.17000
C382        C  0.17765423  0.95140150  0.87095312     0.07100
C383        C  0.15209581  0.97513993  0.87427988     0.08900
C384        C  0.13096790  0.99708917  0.87657820    -0.17800
C385        C  0.21153796  0.70169267  0.84510338    -0.17000
C386        C  0.22922335  0.72881415  0.83954146     0.07100
C387        C  0.25140827  0.75985911  0.83948651     0.08900
C388        C  0.26910901  0.78698569  0.84497453    -0.17800
C389        C  0.34968796  0.49708755  0.61447858    -0.17000
C390        C  0.32856172  0.47512952  0.61676265     0.07100
C391        C  0.30300951  0.45138037  0.62007811     0.08900
C392        C  0.27921115  0.43616226  0.62109294    -0.17800
C393        C  0.02921122  0.55248400  0.62109406    -0.17000
C394        C  0.05300672  0.53725082  0.62009963     0.07100
C395        C  0.07855248  0.51347969  0.61680214     0.08900
C396        C  0.09967454  0.49151311  0.61452588    -0.17800
C397        C  0.17023268  0.52699534  0.78269071    -0.17000
C398        C  0.16909478  0.50709047  0.75901723     0.07100
C399        C  0.16908308  0.48160370  0.73216084     0.08900
C400        C  0.17020055  0.46169418  0.70848808    -0.17800
C401        C  0.45139691  0.93607352  0.62105000    -0.17000
C402        C  0.42758661  0.95125014  0.62001681     0.07100
C403        C  0.40201881  0.97496372  0.61668247     0.08900
C404        C  0.38088880  0.99691191  0.61438896    -0.17800
C405        C  0.20139260  0.05259983  0.62106766    -0.17000
C406        C  0.17758784  0.03740172  0.62005955     0.07100
C407        C  0.15203177  0.01365557  0.61674451     0.08900
C408        C  0.13090931  0.99169111  0.61445706    -0.17800
C409        C  0.31051447  0.96167519  0.78256998    -0.17000
C410        C  0.31164028  0.98159109  0.75890011     0.07100
C411        C  0.31163445  0.00708739  0.73205427     0.08900
C412        C  0.31049883  0.02699823  0.70838328    -0.17800
C413        C  0.26917011  0.20166878  0.64598233    -0.17000
C414        C  0.25148342  0.22878905  0.65154699     0.07100
C415        C  0.22929607  0.25982997  0.65160547     0.08900
C416        C  0.21158959  0.28695282  0.64611868    -0.17800
C417        C  0.01617659  0.48672432  0.46267922    -0.17000
C418        C  0.50074547  0.49323942  0.48405361     0.07100
C419        C  0.47993391  0.49491241  0.50711790     0.08900
C420        C  0.46450218  0.50143884  0.52849070    -0.17800
C421        C  0.13379353  0.34530916  0.53526053    -0.17000
C422        C  0.12180871  0.34093226  0.51058990     0.07100
C423        C  0.10891470  0.34086087  0.48070134     0.08900
C424        C  0.09692297  0.34512301  0.45602386    -0.17800
C425        C  0.01914765  0.28652779  0.34512563    -0.17000
C426        C  0.50145093  0.25941994  0.33956444     0.07100
C427        C  0.47925823  0.22838605  0.33950085     0.08900
C428        C  0.46154873  0.20126260  0.34497659    -0.17800
C429        C  0.46438675  0.00114786  0.46256499    -0.17000
C430        C  0.47981470  0.99479266  0.48396880     0.07100
C431        C  0.50063046  0.99336961  0.50703482     0.08900
C432        C  0.01607906  0.98702781  0.52842382    -0.17800
C433        C  0.38374773  0.14282475  0.45581021    -0.17000
C434        C  0.37175398  0.14718718  0.48047839     0.07100
C435        C  0.35885020  0.14724569  0.51036209     0.08900
C436        C  0.34685489  0.14298106  0.53503832    -0.17800
C437        C  0.13384651  0.64300290  0.95603529    -0.17000
C438        C  0.12185775  0.64727272  0.98071669     0.07100
C439        C  0.10896504  0.64722022  0.01060506     0.08900
C440        C  0.09697673  0.64286082  0.03527836    -0.17800
C441        C  0.46471587  0.48711984  0.96258672    -0.17000
C442        C  0.48017558  0.49347016  0.98396366     0.07100
C443        C  0.50098749  0.49488542  0.00703645     0.08900
C444        C  0.01639628  0.50121967  0.02845734    -0.17800
C445        C  0.06055604  0.46120573  0.28271304    -0.17000
C446        C  0.06169392  0.48112807  0.25904412     0.07100
C447        C  0.06170061  0.50663103  0.23219882     0.08900
C448        C  0.06057527  0.52655374  0.20852979    -0.17800
C449        C  0.42011686  0.96117367  0.20838744    -0.17000
C450        C  0.41898094  0.98110019  0.23205255     0.07100
C451        C  0.41897740  0.00661707  0.25888745     0.08900
C452        C  0.42010740  0.02655173  0.28255010    -0.17800
C453        C  0.01914535  0.70127758  0.14609740    -0.17000
C454        C  0.50143277  0.72840168  0.15157239     0.07100
C455        C  0.47923986  0.75943214  0.15150971     0.08900
C456        C  0.46153966  0.78654138  0.14595098    -0.17800
C457        C  0.46450470  0.98680456  0.02844630    -0.17000
C458        C  0.47993626  0.99334113  0.00707594     0.07100
C459        C  0.50074128  0.99502458  0.98400394     0.08900
C460        C  0.01616223  0.00154082  0.96262081    -0.17800
C461        C  0.34685660  0.84539416  0.95584062    -0.17000
C462        C  0.35884494  0.84100698  0.98050818     0.07100
C463        C  0.37174942  0.84091871  0.01039126     0.08900
C464        C  0.38375013  0.84516666  0.03506422    -0.17800
C465        C  0.34699300  0.34518364  0.03513506    -0.17000
C466        C  0.35899579  0.34096081  0.01046025     0.07100
C467        C  0.37190059  0.34107955  0.98057658     0.08900
C468        C  0.38388716  0.34548361  0.95590877    -0.17800
C469        C  0.26632395  0.48677600  0.02849665    -0.17000
C470        C  0.25092492  0.49329763  0.00709595     0.07100
C471        C  0.23013907  0.49496918  0.98400842     0.08900
C472        C  0.21470839  0.50148134  0.96263181    -0.17800
C473        C  0.38108522  0.49110035  0.11452635    -0.17000
C474        C  0.40221036  0.51305360  0.11681047     0.07100
C475        C  0.42776382  0.53680317  0.12012286     0.08900
C476        C  0.45156081  0.55202133  0.12113224    -0.17800
C477        C  0.13110361  0.49673390  0.11458769    -0.17000
C478        C  0.15222265  0.47476575  0.11686214     0.07100
C479        C  0.17776615  0.45098555  0.12015115     0.08900
C480        C  0.20155811  0.43574721  0.12113369    -0.17800
C481        C  0.27918911  0.05206560  0.12102518    -0.17000
C482        C  0.30298988  0.03685309  0.12001206     0.07100
C483        C  0.32854520  0.01310969  0.11670000     0.08900
C484        C  0.34967298  0.99115445  0.11441896    -0.17800
C485        C  0.02919546  0.93572254  0.12102995    -0.17000
C486        C  0.05298960  0.95095364  0.12002992     0.07100
C487        C  0.07853463  0.97472755  0.11672661     0.08900
C488        C  0.09965400  0.99669614  0.11444789    -0.17800
C489        C  0.26917784  0.28650718  0.14599260    -0.17000
C490        C  0.25147497  0.25939539  0.15152462     0.07100
C491        C  0.22927869  0.22836507  0.15154943     0.08900
C492        C  0.21156981  0.20125302  0.14604667    -0.17800
C493        C  0.09689281  0.14311341  0.95595250    -0.17000
C494        C  0.10888482  0.14736829  0.98063048     0.07100
C495        C  0.12178003  0.14728704  0.01051807     0.08900
C496        C  0.13376686  0.14290308  0.03518709    -0.17800
C497        C  0.26617617  0.98711471  0.96255989    -0.17000
C498        C  0.25071908  0.99347333  0.98394006     0.07100
C499        C  0.22988267  0.99489201  0.00698588     0.08900
C500        C  0.21443458  0.00123260  0.02837635    -0.17800
C501        C  0.34689465  0.64284390  0.45588228    -0.17000
C502        C  0.35888563  0.64723089  0.48054701     0.07100
C503        C  0.37179028  0.64731909  0.51043138     0.08900
C504        C  0.38378680  0.64307100  0.53510537    -0.17800
C505        C  0.26617164  0.50111602  0.46260851    -0.17000
C506        C  0.25071064  0.49474137  0.48398193     0.07100
C507        C  0.22987698  0.49330219  0.50703145     0.08900
C508        C  0.21443762  0.48695524  0.52842804    -0.17800
C509        C  0.38101041  0.49664882  0.37663524    -0.17000
C510        C  0.40213090  0.47467917  0.37437194     0.07100
C511        C  0.42767960  0.45091017  0.37107819     0.08900
C512        C  0.45147590  0.43568711  0.37007779    -0.17800
C513        C  0.13100107  0.49114778  0.37665514    -0.17000
C514        C  0.15212779  0.51310114  0.37435160     0.07100
C515        C  0.17768155  0.53684395  0.37101728     0.08900
C516        C  0.20148165  0.55205586  0.36999404    -0.17800
C517        C  0.31060433  0.46112001  0.20847944    -0.17000
C518        C  0.31172718  0.48104142  0.23214445     0.07100
C519        C  0.31171277  0.50656229  0.25898096     0.08900
C520        C  0.31056887  0.52650037  0.28263782    -0.17800
C521        C  0.34962493  0.99669770  0.37652781    -0.17000
C522        C  0.32850386  0.97472701  0.37426110     0.07100
C523        C  0.30295970  0.95095549  0.37096750     0.08900
C524        C  0.27916419  0.93572650  0.36997092    -0.17800
C525        C  0.02915587  0.05203388  0.36989742    -0.17000
C526        C  0.05295383  0.03681709  0.37090233     0.07100
C527        C  0.07850763  0.01306880  0.37422079     0.08900
C528        C  0.09963334  0.99111674  0.37651805    -0.17800
C529        C  0.17011881  0.96114799  0.28259039    -0.17000
C530        C  0.16899338  0.98106323  0.25891769     0.07100
C531        C  0.16900313  0.00656597  0.23207262     0.08900
C532        C  0.17014102  0.02649567  0.20840693    -0.17800
C533        C  0.21152913  0.78650611  0.34507591    -0.17000
C534        C  0.22922804  0.75939140  0.33954259     0.07100
C535        C  0.25141973  0.72835467  0.33951523     0.08900
C536        C  0.26912479  0.70123474  0.34501672    -0.17800
C537        C  0.13372108  0.84517272  0.45593396    -0.17000
C538        C  0.12172733  0.84093604  0.48061325     0.07100
C539        C  0.10883389  0.84103630  0.51050351     0.08900
C540        C  0.09685221  0.84542758  0.53517562    -0.17800
C541        C  0.26599784  0.00143739  0.52846365    -0.17000
C542        C  0.25056409  0.99492024  0.50709051     0.07100
C543        C  0.22977933  0.99325272  0.48400140     0.08900
C544        C  0.21438554  0.98674285  0.46259495    -0.17800
O545        O  0.64387689  0.85043592  0.40217013    -0.83800
O546        O  0.62427414  0.92706289  0.38127704    -0.80900
C547        C  0.62544903  0.96620496  0.37624567     0.99600
O548        O  0.64881285  0.98408271  0.36921767    -0.80900
O549        O  0.68694000  0.98057824  0.41781352    -0.83500
C550        C  0.70538111  0.96551686  0.43587819     1.04200
O551        O  0.71851503  0.93194337  0.42989526    -0.76300
O552        O  0.67502747  0.87545385  0.43555705    -0.76500
C553        C  0.65151432  0.85730661  0.42984305     1.04100
O554        O  0.67847784  0.84375557  0.34398213    -0.83800
O555        O  0.65407775  0.91936584  0.32415513    -0.80900
C556        C  0.67299029  0.94419074  0.31316840     0.99700
O557        O  0.69346698  0.95753310  0.32936935    -0.80900
O558        O  0.73271794  0.96004489  0.37605612    -0.83500
C559        C  0.74891580  0.92812123  0.37347363     1.04100
O560        O  0.73925447  0.89120250  0.37729737    -0.76300
O561        O  0.69899302  0.82699037  0.38700585    -0.76500
C562        C  0.69520778  0.82023490  0.35903165     1.04100
Cr563      Cr  0.65253900  0.88640355  0.36408816     1.93700
Cr564      Cr  0.68983148  0.96623772  0.37375860     1.93200
Cr565      Cr  0.70600088  0.88335772  0.40534849     1.39100
O566        O  0.68256577  0.91221324  0.38092320    -1.21600
O567        O  0.83676127  0.63739609  0.40212761    -0.83800
O568        O  0.85637360  0.56072169  0.38130982    -0.80900
C569        C  0.85519763  0.52156723  0.37631742     0.99600
O570        O  0.83183721  0.50367991  0.36929192    -0.80900
O571        O  0.79368015  0.50722693  0.41786154    -0.83500
C572        C  0.77523097  0.52231774  0.43590352     1.04200
O573        O  0.76212564  0.55590882  0.42990569    -0.76300
O574        O  0.80562494  0.61239989  0.43553976    -0.76500
C575        C  0.82912307  0.63058100  0.42980866     1.04100
O576        O  0.80217055  0.64397107  0.34393829    -0.83800
O577        O  0.82659214  0.56833471  0.32417676    -0.80900
C578        C  0.80768300  0.54349927  0.31320193     0.99700
O579        O  0.78719878  0.53018295  0.32940245    -0.80900
O580        O  0.74792852  0.52773478  0.37607371    -0.83500
C581        C  0.73173296  0.55965778  0.37348167     1.04100
O582        O  0.74139804  0.59658030  0.37728767    -0.76300
O583        O  0.78166876  0.66079449  0.38695811    -0.76500
C584        C  0.78544640  0.66751608  0.35897850     1.04100
Cr585      Cr  0.82811229  0.60135604  0.36408071     1.93700
Cr586      Cr  0.79081576  0.52153038  0.37379805     1.93200
Cr587      Cr  0.77465135  0.60445505  0.40533479     1.39100
O588        O  0.79808505  0.57556391  0.38093160    -1.21600
O589        O  0.64390684  0.13743639  0.08894100    -0.83800
O590        O  0.62429554  0.06076337  0.10976140    -0.80900
C591        C  0.62547072  0.02160713  0.11474532     0.99600
O592        O  0.64883351  0.00371041  0.12174571    -0.80900
O593        O  0.68696657  0.00729279  0.07315507    -0.83500
C594        C  0.70540856  0.02239439  0.05510894     1.04200
O595        O  0.71853328  0.05596251  0.06112431    -0.76300
O596        O  0.67504066  0.11246296  0.05551638    -0.76500
C597        C  0.65154287  0.13063487  0.06125672     1.04100
O598        O  0.67851979  0.14399369  0.14712184    -0.83800
O599        O  0.65410690  0.06835057  0.16688132    -0.80900
C600        C  0.67301322  0.04349715  0.17784111     0.99700
O601        O  0.69348613  0.03017170  0.16162454    -0.80900
O602        O  0.73274091  0.02775453  0.11493346    -0.83500
C603        C  0.74893899  0.05967362  0.11753782     1.04100
O604        O  0.73927602  0.09660028  0.11374887    -0.76300
O605        O  0.69901119  0.16083116  0.10410044    -0.76500
C606        C  0.69524033  0.16754092  0.13208209     1.04100
Cr607      Cr  0.65256878  0.10138671  0.12698231     1.93700
Cr608      Cr  0.68985326  0.02155699  0.11722481     1.93200
Cr609      Cr  0.70601878  0.10449728  0.08571161     1.39100
O610        O  0.68258805  0.07559772  0.11011393    -1.21600
O611        O  0.83683198  0.35042502  0.08889622    -0.83800
O612        O  0.85644111  0.42704731  0.10978363    -0.80900
C613        C  0.85527003  0.46619006  0.11481633     0.99600
O614        O  0.83191030  0.48406829  0.12185905    -0.80900
O615        O  0.79378023  0.48058692  0.07326810    -0.83500
C616        C  0.77533437  0.46553343  0.05520364     1.04200
O617        O  0.76220216  0.43195817  0.06118166    -0.76300
O618        O  0.80568288  0.37545569  0.05551278    -0.76500
C619        C  0.82919552  0.35730570  0.06122511     1.04100
O620        O  0.80223740  0.34374659  0.14708586    -0.83800
O621        O  0.82664611  0.41934941  0.16691100    -0.80900
C622        C  0.80773211  0.44416663  0.17790139     0.99700
O623        O  0.78725389  0.45751176  0.16170495    -0.80900
O624        O  0.74800371  0.46005348  0.11502491    -0.83500
C625        C  0.73180450  0.42813470  0.11761169     1.04100
O626        O  0.74146023  0.39121333  0.11377963    -0.76300
O627        O  0.78171392  0.32699292  0.10406381    -0.76500
C628        C  0.78550163  0.32023211  0.13203735     1.04100
Cr629      Cr  0.82817722  0.38639144  0.12697788     1.93700
Cr630      Cr  0.79089014  0.46623336  0.11731958     1.93200
Cr631      Cr  0.77471107  0.38336371  0.08572388     1.39100
O632        O  0.79815089  0.41220944  0.11014818    -1.21600
O633        O  0.92505677  0.87545290  0.05543717    -0.83800
O634        O  0.96855056  0.93193641  0.06109732    -0.80900
C635        C  0.95544667  0.96554009  0.05512689     0.99600
O636        O  0.93699710  0.98060296  0.07318347    -0.80900
O637        O  0.89884614  0.98410371  0.12176094    -0.83500
C638        C  0.87548344  0.96623356  0.11471498     1.04200
O639        O  0.87430589  0.92709099  0.10968660    -0.76300
O640        O  0.89390286  0.85044375  0.08882450    -0.76500
C641        C  0.90154439  0.85730869  0.06115046     1.04100
O642        O  0.94901288  0.82699943  0.10400396    -0.83800
O643        O  0.48928195  0.89120273  0.11369949    -0.80900
C644        C  0.49894568  0.92812065  0.11752700     0.99700
O645        O  0.98275078  0.96004541  0.11494922    -0.80900
O646        O  0.94348706  0.95753114  0.16162324    -0.83500
C647        C  0.92299830  0.94420832  0.17781519     1.04100
O648        O  0.90408061  0.91940090  0.16682161    -0.76300
O649        O  0.92848453  0.84378443  0.14701888    -0.76500
C650        C  0.94522126  0.82025616  0.13197970     1.04100
Cr651      Cr  0.95602838  0.88335891  0.08564814     1.93700
Cr652      Cr  0.93986542  0.96624773  0.11723545     1.93200
Cr653      Cr  0.90255656  0.88642809  0.12689592     1.39100
O654        O  0.93259246  0.91222604  0.11006618    -1.21600
O655        O  0.55570141  0.61243287  0.05561323    -0.83800
O656        O  0.51222306  0.55591189  0.06123084    -0.80900
C657        C  0.52537465  0.52236830  0.05521429     0.99600
O658        O  0.54381232  0.50728058  0.07327220    -0.80900
O659        O  0.58192279  0.50373050  0.12187898    -0.83500
C660        C  0.60528352  0.52163686  0.11488005     1.04200
O661        O  0.60645083  0.56078975  0.10988932    -0.76300
O662        O  0.58682744  0.63743491  0.08903388    -0.76500
C663        C  0.57919759  0.63061296  0.06135003     1.04100
O664        O  0.53171143  0.66081792  0.10417494    -0.83800
O665        O  0.99146364  0.59657014  0.11384490    -0.80900
C666        C  0.98180926  0.55964182  0.11763936     0.99700
O667        O  0.99801355  0.52772773  0.11503547    -0.80900
O668        O  0.53725231  0.53018459  0.16173595    -0.83500
C669        C  0.55771230  0.54353521  0.17795726     1.04100
O670        O  0.57661583  0.56839792  0.16699835    -0.76300
O671        O  0.55219780  0.64402165  0.14720630    -0.76500
C672        C  0.53547658  0.66755505  0.13215397     1.04100
Cr673      Cr  0.52472073  0.60446900  0.08580642     1.93700
Cr674      Cr  0.54090209  0.52155467  0.11733959     1.93200
Cr675      Cr  0.57816230  0.60141020  0.12708823     1.39100
O676        O  0.54815431  0.57559643  0.11022047    -1.21600
O677        O  0.92502112  0.11239631  0.43546585    -0.83800
O678        O  0.96850962  0.05588816  0.42982626    -0.80900
C679        C  0.95537712  0.02232544  0.43583347     0.99600
O680        O  0.93693174  0.00724219  0.41778120    -0.80900
O681        O  0.89879884  0.00371029  0.36919645    -0.83500
C682        C  0.87543959  0.02160592  0.37621699     1.04200
O683        O  0.87426978  0.06075976  0.38121219    -0.76300
O684        O  0.89389112  0.13741120  0.40205501    -0.76500
C685        C  0.90152524  0.13057990  0.42973589     1.04100
O686        O  0.94899189  0.16079939  0.38690072    -0.83800
O687        O  0.48924936  0.09656982  0.37721308    -0.80900
C688        C  0.49890732  0.05964557  0.37340370     0.99700
O689        O  0.98270826  0.02772640  0.37600474    -0.80900
O690        O  0.94345370  0.03019777  0.32932533    -0.83500
C691        C  0.92298189  0.04353441  0.31311709     1.04100
O692        O  0.90407441  0.06838099  0.32408889    -0.76300
O693        O  0.92849856  0.14400402  0.34387264    -0.76500
C694        C  0.94522083  0.16753693  0.35892223     1.04100
Cr695      Cr  0.95599734  0.10444977  0.40526279     1.93700
Cr696      Cr  0.93982026  0.02154216  0.37371850     1.93200
Cr697      Cr  0.90254446  0.10138799  0.36399939     1.39100
O698        O  0.93256160  0.07557782  0.38085255    -1.21600
O699        O  0.55561951  0.37541799  0.43565253    -0.83800
O700        O  0.51211967  0.43189110  0.43000177    -0.80900
C701        C  0.52522678  0.46548430  0.43598447     0.99600
O702        O  0.54367406  0.48056214  0.41793182    -0.80900
O703        O  0.58182284  0.48409914  0.36935120    -0.83500
C704        C  0.60518902  0.46622884  0.37637957     1.04200
O705        O  0.60637048  0.42708433  0.38140400    -0.76300
O706        O  0.58677841  0.35042961  0.40226149    -0.76500
C707        C  0.57913366  0.35727909  0.42993728     1.04100
O708        O  0.53167212  0.32697530  0.38707905    -0.83800
O709        O  0.99139557  0.39117376  0.37739176    -0.80900
C710        C  0.98172762  0.42809037  0.37357507     0.99700
O711        O  0.99791923  0.46001894  0.37615900    -0.80900
O712        O  0.53718651  0.45754607  0.32948110    -0.83500
C713        C  0.55767406  0.44422889  0.31328424     1.04100
O714        O  0.57658992  0.41940978  0.32427166    -0.76300
O715        O  0.55219444  0.34378051  0.34406573    -0.76500
C716        C  0.53546414  0.32024406  0.35910000     1.04100
Cr717      Cr  0.52464905  0.38332705  0.40544196     1.93700
Cr718      Cr  0.54080508  0.46623346  0.37387416     1.93200
Cr719      Cr  0.57811992  0.38642320  0.36419324     1.39100
O720        O  0.54808235  0.41220922  0.38102917    -1.21600
O721        O  0.80554395  0.11272808  0.55543455    -0.83800
O722        O  0.76201212  0.05630772  0.56111999    -0.80900
C723        C  0.77508636  0.02268312  0.55514023     0.99600
O724        O  0.79353610  0.00758912  0.57318148    -0.80900
O725        O  0.83171618  0.00402250  0.62173499    -0.83500
C726        C  0.85508875  0.02186008  0.61468177     1.04200
O727        O  0.85628927  0.06100101  0.60964931    -0.76300
O728        O  0.83673429  0.13768198  0.58880370    -0.76500
C729        C  0.82907201  0.13084211  0.56113467     1.04100
O730        O  0.78165040  0.16120587  0.60402271    -0.83800
O731        O  0.74133800  0.09706250  0.61373883    -0.80900
C732        C  0.73164877  0.06015806  0.61756495     0.99700
O733        O  0.74782163  0.02821015  0.61498002    -0.80900
O734        O  0.78711380  0.03065824  0.66162881    -0.83500
C735        C  0.80761790  0.04395563  0.67780862     1.04100
O736        O  0.82654843  0.06873219  0.66680297    -0.76300
O737        O  0.80219020  0.14438314  0.64702197    -0.76500
C738        C  0.78546212  0.16793626  0.63199601     1.04100
Cr739      Cr  0.77458353  0.10486120  0.58566667     1.93700
Cr740      Cr  0.79070485  0.02194209  0.61723734     1.93200
Cr741      Cr  0.82807594  0.10170427  0.62687810     1.39100
O742        O  0.79801247  0.07595397  0.61006644    -1.21600
O743        O  0.67506949  0.37573845  0.55559107    -0.83800
O744        O  0.71855612  0.43224649  0.56119341    -0.80900
C745        C  0.70542289  0.46580340  0.55516921     0.99600
O746        O  0.68697911  0.48090632  0.57321541    -0.80900
O747        O  0.64885575  0.48450369  0.62181589    -0.83500
C748        C  0.62549155  0.46660367  0.61482207     1.04200
O749        O  0.62431809  0.42744788  0.60984236    -0.76300
O750        O  0.64392927  0.35077950  0.58901589    -0.76500
C751        C  0.65156864  0.35757352  0.56133136     1.04100
O752        O  0.69904044  0.32738189  0.60417643    -0.83800
O753        O  0.73930054  0.39162060  0.61382507    -0.80900
C754        C  0.74896131  0.42854844  0.61760540     0.99700
O755        O  0.73276223  0.46046586  0.61499112    -0.80900
O756        O  0.69351579  0.45805365  0.66168747    -0.83500
C757        C  0.67305346  0.44471340  0.67791259     1.04100
O758        O  0.65414425  0.41985976  0.66695876    -0.76300
O759        O  0.67854545  0.34421746  0.64719612    -0.76500
C760        C  0.69526634  0.32066926  0.63215642     1.04100
Cr761      Cr  0.70604531  0.38371368  0.58578605     1.93700
Cr762      Cr  0.68987458  0.46665762  0.61728770     1.93200
Cr763      Cr  0.65259525  0.38682597  0.62705844     1.39100
O764        O  0.68261232  0.41261430  0.61018551    -1.21600
O765        O  0.80559094  0.87583677  0.93548963    -0.83800
O766        O  0.76210281  0.93234054  0.92984687    -0.80900
C767        C  0.77521889  0.96592171  0.93584736     0.99600
O768        O  0.79366632  0.98100939  0.91780053    -0.80900
O769        O  0.83181152  0.98455020  0.86922064    -0.83500
C770        C  0.85517205  0.96666708  0.87625270     1.04200
O771        O  0.85634731  0.92751563  0.88125487    -0.76300
O772        O  0.83673637  0.85084589  0.90208411    -0.76500
C773        C  0.82909095  0.85765742  0.92976287     1.04100
O774        O  0.78163556  0.82744385  0.88690990    -0.83800
O775        O  0.74137073  0.89166458  0.87722985    -0.80900
C776        C  0.73170686  0.92858725  0.87342654     0.99700
O777        O  0.74790349  0.96050842  0.87602289    -0.80900
O778        O  0.78716593  0.95803632  0.82934647    -0.83500
C779        C  0.80764507  0.94470724  0.81314239     1.04100
O780        O  0.82655999  0.91988266  0.82412114    -0.76300
O781        O  0.80215068  0.84425185  0.84389363    -0.76500
C782        C  0.78542327  0.82071325  0.85893454     1.04100
Cr783      Cr  0.77462171  0.88378657  0.90528078     1.93700
Cr784      Cr  0.79079137  0.96670239  0.87373890     1.93200
Cr785      Cr  0.82808726  0.88687487  0.86403114     1.39100
O786        O  0.79805898  0.91266970  0.88087731    -1.21600
O787        O  0.67515734  0.61274775  0.93564434    -0.83800
O788        O  0.71869867  0.55634365  0.92996979    -0.80900
C789        C  0.70562645  0.52271889  0.93594942     0.99600
O790        O  0.68718321  0.50761669  0.91790310    -0.80900
O791        O  0.64901177  0.50403251  0.86934048    -0.83500
C792        C  0.62563336  0.52186609  0.87637982     1.04200
O793        O  0.62442697  0.56100539  0.88141435    -0.76300
O794        O  0.64396924  0.63769212  0.90226876    -0.76500
C795        C  0.65162952  0.63085811  0.92994109     1.04100
O796        O  0.69905095  0.66123234  0.88706166    -0.83800
O797        O  0.73937713  0.59710238  0.87735691    -0.80900
C798        C  0.74907364  0.56020297  0.87353756     0.99700
O799        O  0.73290339  0.52824788  0.87611269    -0.80900
O800        O  0.69361568  0.53067147  0.82945151    -0.83500
C801        C  0.67311106  0.54396238  0.81326758     1.04100
O802        O  0.65417995  0.56874125  0.82426825    -0.76300
O803        O  0.67852533  0.64440015  0.84405701    -0.76500
C804        C  0.69524589  0.66795918  0.85908617     1.04100
Cr805      Cr  0.70612382  0.60489080  0.90541921     1.93700
Cr806      Cr  0.69002049  0.52196454  0.87384597     1.93200
Cr807      Cr  0.65264026  0.60171586  0.86419445     1.39100
O808        O  0.68270409  0.57597483  0.88101343    -1.21600
O809        O  0.58673521  0.85089922  0.58893529    -0.83800
O810        O  0.60630187  0.92759951  0.60975463    -0.80900
C811        C  0.60510479  0.96675256  0.61474851     0.99600
O812        O  0.58173047  0.98461507  0.62175759    -0.80900
O813        O  0.54357647  0.98098904  0.57318321    -0.83500
C814        C  0.52513662  0.96586606  0.55514480     1.04200
O815        O  0.51204315  0.93227017  0.56115807    -0.76300
O816        O  0.55557204  0.87583019  0.55552664    -0.76500
C817        C  0.57908282  0.85768581  0.56125445     1.04100
O818        O  0.55214904  0.84428568  0.64713210    -0.83800
O819        O  0.57651547  0.91995560  0.66688691    -0.80900
C820        C  0.55759463  0.94477524  0.67785982     0.99700
O821        O  0.53710798  0.95807753  0.66165383    -0.80900
O822        O  0.99783384  0.96045006  0.61497920    -0.83500
C823        C  0.98165520  0.92850841  0.61757759     1.04100
O824        O  0.99134403  0.89159584  0.61378762    -0.76300
O825        O  0.53165154  0.82742555  0.60411982    -0.76500
C826        C  0.53543704  0.82071730  0.63210032     1.04100
Cr827      Cr  0.57806246  0.88693176  0.62698351     1.93700
Cr828      Cr  0.54071906  0.96670904  0.61725297     1.93200
Cr829      Cr  0.52459925  0.88375035  0.58573707     1.39100
O830        O  0.54801906  0.91268035  0.61013142    -1.21600
O831        O  0.89392556  0.63778674  0.58886856    -0.83800
O832        O  0.87432406  0.56114752  0.60973908    -0.80900
C833        C  0.87549937  0.52200383  0.61477208     0.99600
O834        O  0.89886054  0.50413459  0.62181905    -0.80900
O835        O  0.93700393  0.50763484  0.57323415    -0.83500
C836        C  0.95545548  0.52269523  0.55517855     1.04200
O837        O  0.96857096  0.55628541  0.56115504    -0.76300
O838        O  0.92508966  0.61278496  0.55548782    -0.76500
C839        C  0.90157476  0.63092762  0.56119745     1.04100
O840        O  0.92850159  0.64445642  0.64706643    -0.83800
O841        O  0.90410560  0.56884519  0.66687525    -0.80900
C842        C  0.92302618  0.54404141  0.67786843     0.99700
O843        O  0.94350704  0.53070157  0.66167310    -0.80900
O844        O  0.98276584  0.52817203  0.61499721    -0.83500
C845        C  0.49896380  0.56009319  0.61758505     1.04100
O846        O  0.48930268  0.59701314  0.61376207    -0.76300
O847        O  0.94904358  0.66122904  0.60405626    -0.76500
C848        C  0.94524162  0.66797905  0.63202865     1.04100
Cr849      Cr  0.90257659  0.60180942  0.62694521     1.93700
Cr850      Cr  0.93987985  0.52198355  0.61728675     1.93200
Cr851      Cr  0.95605457  0.60486775  0.58570426     1.39100
O852        O  0.93261217  0.57600707  0.61011864    -1.21600
O853        O  0.58675121  0.13780758  0.90218996    -0.83800
O854        O  0.60633829  0.06115451  0.88132594    -0.80900
C855        C  0.60515562  0.02201137  0.87630191     0.99600
O856        O  0.58178802  0.00414301  0.86927511    -0.80900
O857        O  0.54364707  0.00769168  0.91786444    -0.83500
C858        C  0.52520217  0.02277001  0.93591819     1.04200
O859        O  0.51208803  0.05635835  0.92993102    -0.76300
O860        O  0.55558630  0.11283108  0.93558014    -0.76500
C861        C  0.57910406  0.13096358  0.92986413     1.04100
O862        O  0.55216617  0.14446884  0.84399493    -0.83800
O863        O  0.57654763  0.06883938  0.82419551    -0.80900
C864        C  0.55762629  0.04402699  0.81321108     0.99700
O865        O  0.53714594  0.03070053  0.82941335    -0.80900
O866        O  0.99788621  0.02822922  0.87609601    -0.83500
C867        C  0.98169507  0.06015735  0.87350640     1.04100
O868        O  0.99136414  0.09707473  0.87731835    -0.76300
O869        O  0.53164173  0.16127161  0.88700760    -0.76500
C870        C  0.53543663  0.16800598  0.85903095     1.04100
Cr871      Cr  0.57808795  0.10182025  0.86411949     1.93700
Cr872      Cr  0.54077164  0.02201374  0.87380558     1.93200
Cr873      Cr  0.52461705  0.10492128  0.90536960     1.39100
O874        O  0.54805017  0.07603790  0.88095739    -1.21600
O875        O  0.89398983  0.35095039  0.90214956    -0.83800
O876        O  0.87442461  0.42766135  0.88134598    -0.80900
C877        C  0.87562497  0.46681241  0.87634536     0.99600
O878        O  0.89899681  0.48466287  0.86930805    -0.80900
O879        O  0.93718090  0.48105657  0.91785477    -0.83500
C880        C  0.95562827  0.46593395  0.93588636     1.04200
O881        O  0.96870074  0.43231880  0.92988293    -0.76300
O882        O  0.92516077  0.37589425  0.93554376    -0.76500
C883        C  0.90164964  0.35774417  0.92982675     1.04100
O884        O  0.92854374  0.34432642  0.84393894    -0.83800
O885        O  0.90417064  0.41999645  0.82419439    -0.80900
C886        C  0.92309473  0.44479483  0.81320350     0.99700
O887        O  0.94359707  0.45808210  0.82939158    -0.80900
O888        O  0.98289431  0.46047119  0.87603973    -0.83500
C889        C  0.49906695  0.42852332  0.87344699     1.04100
O890        O  0.48937436  0.39161594  0.87725395    -0.76300
O891        O  0.94905589  0.32746808  0.88694465    -0.76500
C892        C  0.94525905  0.32075667  0.85896718     1.04100
Cr893      Cr  0.90264586  0.38698062  0.86409927     1.93700
Cr894      Cr  0.94000941  0.46674501  0.87378963     1.93200
Cr895      Cr  0.95612608  0.38379383  0.90531916     1.39100
O896        O  0.93270203  0.41272380  0.88093052    -1.21600
C897        C  0.51912573  0.20172819  0.84505898    -0.17000
C898        C  0.00143137  0.22884522  0.83951450     0.07100
C899        C  0.97924723  0.25988901  0.83948435     0.08900
C900        C  0.96155386  0.28702156  0.84499218    -0.17800
C901        C  0.92016034  0.52710323  0.70845100    -0.17000
C902        C  0.91904429  0.50719958  0.73212561     0.07100
C903        C  0.91906410  0.48170378  0.75897210     0.08900
C904        C  0.92020963  0.46178200  0.78263834    -0.17800
C905        C  0.56049122  0.02707124  0.78263104    -0.17000
C906        C  0.56161119  0.00716674  0.75895465     0.07100
C907        C  0.56159940  0.98167933  0.73210072     0.08900
C908        C  0.56046347  0.96176466  0.70842968    -0.17800
C909        C  0.96155308  0.70170256  0.64599855    -0.17000
C910        C  0.97924841  0.72881852  0.65154272     0.07100
C911        C  0.00143534  0.75985973  0.65157526     0.08900
C912        C  0.51913303  0.78698847  0.64607061    -0.17800
C913        C  0.77933379  0.55265284  0.87005557    -0.17000
C914        C  0.80314131  0.53746649  0.87107442     0.07100
C915        C  0.82870191  0.51372782  0.87438731     0.08900
C916        C  0.84982523  0.49176243  0.87666067    -0.17800
C917        C  0.59983360  0.49691341  0.87665128    -0.17000
C918        C  0.57870521  0.47496633  0.87434114     0.07100
C919        C  0.55313743  0.45125312  0.87099597     0.08900
C920        C  0.52932611  0.43607794  0.86996358    -0.17800
C921        C  0.88098318  0.99158694  0.87656754    -0.17000
C922        C  0.90210262  0.01356117  0.87430316     0.07100
C923        C  0.92764810  0.03733464  0.87100916     0.08900
C924        C  0.95144382  0.05256136  0.87000883    -0.17800
C925        C  0.70145513  0.93619264  0.86993567    -0.17000
C926        C  0.67765423  0.95140149  0.87095312     0.07100
C927        C  0.65209581  0.97513991  0.87427987     0.08900
C928        C  0.63096790  0.99708916  0.87657819    -0.17800
C929        C  0.71153794  0.70169267  0.84510338    -0.17000
C930        C  0.72922334  0.72881416  0.83954146     0.07100
C931        C  0.75140826  0.75985912  0.83948652     0.08900
C932        C  0.76910900  0.78698569  0.84497454    -0.17800
C933        C  0.84968793  0.49708755  0.61447857    -0.17000
C934        C  0.82856178  0.47512959  0.61676265     0.07100
C935        C  0.80300932  0.45138024  0.62007812     0.08900
C936        C  0.77921131  0.43616265  0.62109294    -0.17800
C937        C  0.52921126  0.55248399  0.62109407    -0.17000
C938        C  0.55300669  0.53725085  0.62009964     0.07100
C939        C  0.57855249  0.51347967  0.61680214     0.08900
C940        C  0.59967452  0.49151310  0.61452588    -0.17800
C941        C  0.67023264  0.52699535  0.78269066    -0.17000
C942        C  0.66909484  0.50709051  0.75901726     0.07100
C943        C  0.66908309  0.48160368  0.73216081     0.08900
C944        C  0.67020052  0.46169419  0.70848809    -0.17800
C945        C  0.95139757  0.93607324  0.62105001    -0.17000
C946        C  0.92758607  0.95125053  0.62001675     0.07100
C947        C  0.90201897  0.97496356  0.61668238     0.08900
C948        C  0.88088877  0.99691190  0.61438894    -0.17800
C949        C  0.70139256  0.05259982  0.62106763    -0.17000
C950        C  0.67758785  0.03740172  0.62005955     0.07100
C951        C  0.65203175  0.01365556  0.61674451     0.08900
C952        C  0.63090929  0.99169112  0.61445706    -0.17800
C953        C  0.81051451  0.96167523  0.78256997    -0.17000
C954        C  0.81164028  0.98159108  0.75890014     0.07100
C955        C  0.81163452  0.00708739  0.73205424     0.08900
C956        C  0.81049897  0.02699830  0.70838330    -0.17800
C957        C  0.76916984  0.20166918  0.64598244    -0.17000
C958        C  0.75148373  0.22878846  0.65154693     0.07100
C959        C  0.72929562  0.25983060  0.65160538     0.08900
C960        C  0.71158990  0.28695213  0.64611884    -0.17800
C961        C  0.51617658  0.48672435  0.46267922    -0.17000
C962        C  0.00074545  0.49323943  0.48405365     0.07100
C963        C  0.97993393  0.49491241  0.50711787     0.08900
C964        C  0.96450216  0.50143885  0.52849072    -0.17800
C965        C  0.63379357  0.34530915  0.53526057    -0.17000
C966        C  0.62180865  0.34093224  0.51058986     0.07100
C967        C  0.60891469  0.34086087  0.48070136     0.08900
C968        C  0.59692296  0.34512301  0.45602386    -0.17800
C969        C  0.51914762  0.28652777  0.34512562    -0.17000
C970        C  0.00145091  0.25941990  0.33956444     0.07100
C971        C  0.97925825  0.22838608  0.33950085     0.08900
C972        C  0.96154871  0.20126258  0.34497659    -0.17800
C973        C  0.96438666  0.00114789  0.46256485    -0.17000
C974        C  0.97981482  0.99479265  0.48396895     0.07100
C975        C  0.00063043  0.99336961  0.50703479     0.08900
C976        C  0.51607902  0.98702782  0.52842380    -0.17800
C977        C  0.88374761  0.14282483  0.45581033    -0.17000
C978        C  0.87175406  0.14718713  0.48047827     0.07100
C979        C  0.85885017  0.14724569  0.51036212     0.08900
C980        C  0.84685488  0.14298106  0.53503831    -0.17800
C981        C  0.63384649  0.64300290  0.95603529    -0.17000
C982        C  0.62185774  0.64727272  0.98071669     0.07100
C983        C  0.60896501  0.64722023  0.01060506     0.08900
C984        C  0.59697669  0.64286081  0.03527836    -0.17800
C985        C  0.96471571  0.48711974  0.96258635    -0.17000
C986        C  0.98017588  0.49347027  0.98396403     0.07100
C987        C  0.00098715  0.49488535  0.00703595     0.08900
C988        C  0.51639608  0.50121942  0.02845696    -0.17800
C989        C  0.56055605  0.46120570  0.28271305    -0.17000
C990        C  0.56169390  0.48112806  0.25904412     0.07100
C991        C  0.56170061  0.50663109  0.23219877     0.08900
C992        C  0.56057525  0.52655365  0.20852985    -0.17800
C993        C  0.92011688  0.96117361  0.20838742    -0.17000
C994        C  0.91898096  0.98110018  0.23205255     0.07100
C995        C  0.91897754  0.00661710  0.25888746     0.08900
C996        C  0.92010738  0.02655174  0.28255005    -0.17800
C997        C  0.51914533  0.70127756  0.14609735    -0.17000
C998        C  0.00143276  0.72840168  0.15157241     0.07100
C999        C  0.97923988  0.75943210  0.15150971     0.08900
C1000       C  0.96153968  0.78654135  0.14595095    -0.17800
C1001       C  0.96450404  0.98680388  0.02844739    -0.17000
C1002       C  0.97993707  0.99334133  0.00707471     0.07100
C1003       C  0.00074049  0.99502433  0.98400492     0.08900
C1004       C  0.51616174  0.00154052  0.96262164    -0.17800
C1005       C  0.84685663  0.84539413  0.95584058    -0.17000
C1006       C  0.85884496  0.84100694  0.98050823     0.07100
C1007       C  0.87174941  0.84091871  0.01039127     0.08900
C1008       C  0.88375011  0.84516665  0.03506421    -0.17800
C1009       C  0.84699309  0.34518361  0.03513480    -0.17000
C1010       C  0.85899568  0.34096083  0.01046049     0.07100
C1011       C  0.87190054  0.34107954  0.98057663     0.08900
C1012       C  0.88388718  0.34548361  0.95590869    -0.17800
C1013       C  0.76632394  0.48677600  0.02849666    -0.17000
C1014       C  0.75092489  0.49329763  0.00709594     0.07100
C1015       C  0.73013915  0.49496917  0.98400855     0.08900
C1016       C  0.71470830  0.50148136  0.96263168    -0.17800
C1017       C  0.88108456  0.49109979  0.11452639    -0.17000
C1018       C  0.90221097  0.51305415  0.11681058     0.07100
C1019       C  0.92776359  0.53680298  0.12012281     0.08900
C1020       C  0.95156091  0.55202144  0.12113223    -0.17800
C1021       C  0.63110366  0.49673385  0.11458778    -0.17000
C1022       C  0.65222257  0.47476581  0.11686217     0.07100
C1023       C  0.67776619  0.45098550  0.12015124     0.08900
C1024       C  0.70155805  0.43574726  0.12113372    -0.17800
C1025       C  0.77918913  0.05206557  0.12102520    -0.17000
C1026       C  0.80298986  0.03685310  0.12001204     0.07100
C1027       C  0.82854523  0.01310965  0.11669989     0.08900
C1028       C  0.84967294  0.99115441  0.11441894    -0.17800
C1029       C  0.52919553  0.93572257  0.12102997    -0.17000
C1030       C  0.55298955  0.95095360  0.12002991     0.07100
C1031       C  0.57853466  0.97472759  0.11672650     0.08900
C1032       C  0.59965398  0.99669610  0.11444784    -0.17800
C1033       C  0.76917765  0.28650693  0.14599284    -0.17000
C1034       C  0.75147523  0.25939580  0.15152460     0.07100
C1035       C  0.72927840  0.22836459  0.15154937     0.08900
C1036       C  0.71157013  0.20125348  0.14604673    -0.17800
C1037       C  0.59689287  0.14311344  0.95595266    -0.17000
C1038       C  0.60888471  0.14736827  0.98063020     0.07100
C1039       C  0.62178025  0.14728701  0.01051844     0.08900
C1040       C  0.63376663  0.14290320  0.03518671    -0.17800
C1041       C  0.76617630  0.98711471  0.96255981    -0.17000
C1042       C  0.75071910  0.99347334  0.98394001     0.07100
C1043       C  0.72988255  0.99489203  0.00698603     0.08900
C1044       C  0.71443485  0.00123260  0.02837608    -0.17800
C1045       C  0.84689426  0.64284369  0.45588150    -0.17000
C1046       C  0.85888602  0.64723097  0.48054775     0.07100
C1047       C  0.87179012  0.64731915  0.51043094     0.08900
C1048       C  0.88378693  0.64307104  0.53510558    -0.17800
C1049       C  0.76617162  0.50111602  0.46260851    -0.17000
C1050       C  0.75071062  0.49474137  0.48398193     0.07100
C1051       C  0.72987697  0.49330219  0.50703146     0.08900
C1052       C  0.71443760  0.48695524  0.52842804    -0.17800
C1053       C  0.88101024  0.49664904  0.37663528    -0.17000
C1054       C  0.90213102  0.47467897  0.37437192     0.07100
C1055       C  0.92767956  0.45091016  0.37107819     0.08900
C1056       C  0.95147583  0.43568701  0.37007778    -0.17800
C1057       C  0.63100158  0.49114802  0.37665515    -0.17000
C1058       C  0.65212752  0.51310088  0.37435164     0.07100
C1059       C  0.67768154  0.53684400  0.37101727     0.08900
C1060       C  0.70148178  0.55205623  0.36999403    -0.17800
C1061       C  0.81060431  0.46111983  0.20847925    -0.17000
C1062       C  0.81172714  0.48104160  0.23214465     0.07100
C1063       C  0.81171278  0.50656227  0.25898090     0.08900
C1064       C  0.81056885  0.52650040  0.28263788    -0.17800
C1065       C  0.84962492  0.99669770  0.37652781    -0.17000
C1066       C  0.82850384  0.97472701  0.37426110     0.07100
C1067       C  0.80295969  0.95095549  0.37096750     0.08900
C1068       C  0.77916417  0.93572650  0.36997092    -0.17800
C1069       C  0.52915592  0.05203386  0.36989742    -0.17000
C1070       C  0.55295380  0.03681711  0.37090232     0.07100
C1071       C  0.57850764  0.01306878  0.37422080     0.08900
C1072       C  0.59963333  0.99111673  0.37651806    -0.17800
C1073       C  0.67011881  0.96114825  0.28259002    -0.17000
C1074       C  0.66899339  0.98106283  0.25891803     0.07100
C1075       C  0.66900312  0.00656635  0.23207215     0.08900
C1076       C  0.67014097  0.02649526  0.20840731    -0.17800
C1077       C  0.71152914  0.78650607  0.34507590    -0.17000
C1078       C  0.72922803  0.75939139  0.33954260     0.07100
C1079       C  0.75141972  0.72835465  0.33951525     0.08900
C1080       C  0.76912479  0.70123474  0.34501671    -0.17800
C1081       C  0.63372103  0.84517268  0.45593397    -0.17000
C1082       C  0.62172743  0.84093605  0.48061322     0.07100
C1083       C  0.60883394  0.84103634  0.51050352     0.08900
C1084       C  0.59685221  0.84542764  0.53517567    -0.17800
C1085       C  0.76599782  0.00143737  0.52846363    -0.17000
C1086       C  0.75056412  0.99492024  0.50709057     0.07100
C1087       C  0.72977922  0.99325270  0.48400125     0.08900
C1088       C  0.71438557  0.98674309  0.46259509    -0.17800
loop_ 
_geom_bond_atom_site_label_1 
_geom_bond_atom_site_label_2 
_geom_bond_distance 
_geom_bond_site_symmetry_2 
_ccdc_geom_bond_type 
O1          Cr19   2.057       .  S
O1            C9   1.279       .  A
O2          Cr19   1.985       .  S
O2            C3   1.261       .  A
C3            O4   1.260       .  A
C3          C528   1.433       .  S
O4          Cr20   1.993       .  S
O5          Cr20   1.984       .  S
O5            C6   1.258       .  A
C6            O7   1.253       .  A
C6          C544   1.411       .  S
O7          Cr21   1.964       .  S
O8          Cr21   1.966       .  S
O8            C9   1.257       .  A
C9          C537   1.459       .  S
O10         Cr19   2.011       .  S
O10          C18   1.261       .  A
O11         Cr19   2.036       .  S
O11          C12   1.272       .  A
C12          O13   1.257       .  A
C12         C529   1.447       .  S
O13         Cr20   1.968       .  S
O14         Cr20   1.999       .  S
O14          C15   1.265       .  A
C15          O16   1.264       .  A
C15         C524   1.430       .  S
O16         Cr21   1.985       .  S
O17         Cr21   1.985       .  S
O17          C18   1.254       .  A
C18         C533   1.444       .  S
Cr19         O22   1.774       .  S
Cr20         O22   1.773       .  S
Cr21         O22   1.776       .  S
O23         Cr41   2.057       .  S
O23          C31   1.279       .  A
O24         Cr41   1.985       .  S
O24          C25   1.261       .  A
C25          O26   1.260       .  A
C25         C509   1.433       .  S
O26         Cr42   1.993       .  S
O27         Cr42   1.984       .  S
O27          C28   1.258       .  A
C28          O29   1.253       .  A
C28         C505   1.411       .  S
O29         Cr43   1.964       .  S
O30         Cr43   1.966       .  S
O30          C31   1.257       .  A
C31         C501   1.459       .  S
O32         Cr41   2.011       .  S
O32          C40   1.261       .  A
O33         Cr41   2.036       .  S
O33          C34   1.272       .  A
C34          O35   1.257       .  A
C34         C520   1.447       .  S
O35         Cr42   1.967       .  S
O36         Cr42   1.999       .  S
O36          C37   1.265       .  A
C37          O38   1.264       .  A
C37         C516   1.430       .  S
O38         Cr43   1.985       .  S
O39         Cr43   1.985       .  S
O39          C40   1.254       .  A
C40         C536   1.444       .  S
Cr41         O44   1.774       .  S
Cr42         O44   1.773       .  S
Cr43         O44   1.776       .  S
O45         Cr63   2.057       .  S
O45          C53   1.279       .  A
O46         Cr63   1.985       .  S
O46          C47   1.261       .  A
C47          O48   1.260       .  A
C47         C488   1.433   1_545  S
O48         Cr64   1.993       .  S
O49         Cr64   1.984       .  S
O49          C50   1.258       .  A
C50          O51   1.253       .  A
C50         C500   1.411       .  S
O51         Cr65   1.964       .  S
O52         Cr65   1.966       .  S
O52          C53   1.257       .  A
C53         C496   1.459       .  S
O54         Cr63   2.011       .  S
O54          C62   1.261       .  A
O55         Cr63   2.036       .  S
O55          C56   1.272       .  A
C56          O57   1.257       .  A
C56         C532   1.447       .  S
O57         Cr64   1.968       .  S
O58         Cr64   1.999       .  S
O58          C59   1.265       .  A
C59          O60   1.264       .  A
C59         C481   1.430       .  S
O60         Cr65   1.985       .  S
O61         Cr65   1.985       .  S
O61          C62   1.254       .  A
C62         C492   1.444       .  S
Cr63         O66   1.774       .  S
Cr64         O66   1.773       .  S
Cr65         O66   1.776       .  S
O67         Cr85   2.057       .  S
O67          C75   1.279       .  A
O68         Cr85   1.985       .  S
O68          C69   1.261       .  A
C69          O70   1.260       .  A
C69         C473   1.433       .  S
O70         Cr86   1.993       .  S
O71         Cr86   1.984       .  S
O71          C72   1.258       .  A
C72          O73   1.253       .  A
C72         C469   1.411       .  S
O73         Cr87   1.964       .  S
O74         Cr87   1.966       .  S
O74          C75   1.257       .  A
C75         C465   1.459       .  S
O76         Cr85   2.011       .  S
O76          C84   1.261       .  A
O77         Cr85   2.036       .  S
O77          C78   1.272       .  A
C78          O79   1.257       .  A
C78         C517   1.447       .  S
O79         Cr86   1.967       .  S
O80         Cr86   1.999       .  S
O80          C81   1.265       .  A
C81          O82   1.264       .  A
C81         C480   1.430       .  S
O82         Cr87   1.985       .  S
O83         Cr87   1.985       .  S
O83          C84   1.254       .  A
C84         C489   1.444       .  S
Cr85         O88   1.774       .  S
Cr86         O88   1.773       .  S
Cr87         O88   1.776       .  S
O89        Cr107   1.966       .  S
O89          C97   1.257       .  A
O90        Cr107   1.964       .  S
O90          C91   1.253       .  A
C91          O92   1.258       .  A
C91         C457   1.411       .  S
O92        Cr108   1.984       .  S
O93        Cr108   1.993       .  S
O93          C94   1.260       .  A
C94          O95   1.261       .  A
C94         C484   1.433       .  S
O95        Cr109   1.985       .  S
O96        Cr109   2.057       .  S
O96          C97   1.279       .  A
C97         C464   1.459       .  S
O98        Cr107   1.985       .  S
O98         C106   1.254       .  A
O99        Cr651   1.985       .  S
O99         C100   1.264       .  A
C100        O645   1.265       .  A
C100        C485   1.430   1_655  S
O101       Cr108   1.999       .  S
O101        C644   1.265       .  A
O102       Cr108   1.967       .  S
O102        C103   1.257       .  A
C103        O104   1.272       .  A
C103        C449   1.447       .  S
O104       Cr109   2.036       .  S
O105       Cr109   2.011       .  S
O105        C106   1.261       .  A
C106        C456   1.444       .  S
Cr107       O643   1.985       .  S
Cr107       O110   1.776       .  S
Cr108       O110   1.773       .  S
Cr109       O110   1.774       .  S
O111       Cr129   1.966       .  S
O111        C119   1.257       .  A
O112       Cr129   1.964       .  S
O112        C113   1.253       .  A
C113        O114   1.258       .  A
C113        C444   1.411       .  S
O114       Cr130   1.984       .  S
O115       Cr130   1.992       .  S
O115        C116   1.260       .  A
C116        O117   1.261       .  A
C116        C477   1.433       .  S
O117       Cr131   1.985       .  S
O118       Cr131   2.057       .  S
O118        C119   1.279       .  A
C119        C440   1.459       .  S
O120       Cr129   1.985       .  S
O120        C128   1.254       .  A
O121       Cr673   1.985       .  S
O121        C122   1.264       .  A
C122        O123   1.265       .  A
C122        C476   1.430       .  S
O123       Cr674   1.999       .  S
O124       Cr130   1.968       .  S
O124        C125   1.257       .  A
C125        O126   1.272       .  A
C125        C448   1.447       .  S
O126       Cr131   2.036       .  S
O127       Cr131   2.011       .  S
O127        C128   1.261       .  A
C128        C453   1.444       .  S
Cr129       O665   1.985   1_455  S
Cr129       O132   1.776       .  S
Cr130       O667   1.999   1_455  S
Cr130       O132   1.773       .  S
Cr131       O132   1.774       .  S
O133       Cr151   1.966       .  S
O133        C141   1.257       .  A
O134       Cr151   1.964       .  S
O134        C135   1.253       .  A
C135        O136   1.258       .  A
C135        C429   1.411       .  S
O136       Cr152   1.984       .  S
O137       Cr152   1.993       .  S
O137        C138   1.260       .  A
C138        O139   1.261       .  A
C138        C521   1.433   1_545  S
O139       Cr153   1.985       .  S
O140       Cr153   2.057       .  S
O140        C141   1.279       .  A
C141        C433   1.459       .  S
O142       Cr151   1.985       .  S
O142        C150   1.254       .  A
O143       Cr695   1.985       .  S
O143        C144   1.264       .  A
C144        O689   1.265       .  A
C144        C525   1.430   1_655  S
O145       Cr152   1.999       .  S
O145        C688   1.265       .  A
O146       Cr152   1.967       .  S
O146        C147   1.257       .  A
C147        O148   1.272       .  A
C147        C452   1.447       .  S
O148       Cr153   2.036       .  S
O149       Cr153   2.011       .  S
O149        C150   1.261       .  A
C150        C428   1.444       .  S
Cr151       O687   1.985       .  S
Cr151       O154   1.776       .  S
Cr152       O154   1.773       .  S
Cr153       O154   1.774       .  S
O155       Cr173   1.966       .  S
O155        C163   1.257       .  A
O156       Cr173   1.964       .  S
O156        C157   1.253       .  A
C157        O158   1.258       .  A
C157        C417   1.411       .  S
O158       Cr174   1.984       .  S
O159       Cr174   1.993       .  S
O159        C160   1.260       .  A
C160        O161   1.261       .  A
C160        C513   1.433       .  S
O161       Cr175   1.985       .  S
O162       Cr175   2.057       .  S
O162        C163   1.279       .  A
C163        C424   1.459       .  S
O164       Cr173   1.985       .  S
O164        C172   1.254       .  A
O165       Cr717   1.985       .  S
O165        C166   1.264       .  A
C166        O167   1.265       .  A
C166        C512   1.430       .  S
O167       Cr718   1.999       .  S
O168       Cr174   1.968       .  S
O168        C169   1.257       .  A
C169        O170   1.272       .  A
C169        C445   1.447       .  S
O170       Cr175   2.036       .  S
O171       Cr175   2.011       .  S
O171        C172   1.261       .  A
C172        C425   1.444       .  S
Cr173       O709   1.985   1_455  S
Cr173       O176   1.776       .  S
Cr174       O711   1.999   1_455  S
Cr174       O176   1.773       .  S
Cr175       O176   1.774       .  S
O177       Cr195   1.966       .  S
O177        C185   1.257       .  A
O178       Cr195   1.964       .  S
O178        C179   1.253       .  A
C179        O180   1.258       .  A
C179        C541   1.411       .  S
O180       Cr196   1.984       .  S
O181       Cr196   1.993       .  S
O181        C182   1.260       .  A
C182        O183   1.261       .  A
C182        C404   1.433   1_545  S
O183       Cr197   1.985       .  S
O184       Cr197   2.057       .  S
O184        C185   1.279       .  A
C185        C436   1.459       .  S
O186       Cr195   1.985       .  S
O186        C194   1.254       .  A
O187       Cr195   1.985       .  S
O187        C188   1.264       .  A
C188        O189   1.265       .  A
C188        C405   1.430       .  S
O189       Cr196   1.999       .  S
O190       Cr196   1.967       .  S
O190        C191   1.257       .  A
C191        O192   1.272       .  A
C191        C412   1.447       .  S
O192       Cr197   2.036       .  S
O193       Cr197   2.011       .  S
O193        C194   1.261       .  A
C194        C413   1.444       .  S
Cr195       O198   1.776       .  S
Cr196       O198   1.773       .  S
Cr197       O198   1.774       .  S
O199       Cr217   1.966       .  S
O199        C207   1.257       .  A
O200       Cr217   1.964       .  S
O200        C201   1.253       .  A
C201        O202   1.258       .  A
C201        C508   1.411       .  S
O202       Cr218   1.984       .  S
O203       Cr218   1.993       .  S
O203        C204   1.260       .  A
C204        O205   1.261       .  A
C204        C396   1.433       .  S
O205       Cr219   1.985       .  S
O206       Cr219   2.057       .  S
O206        C207   1.279       .  A
C207        C421   1.459       .  S
O208       Cr217   1.985       .  S
O208        C216   1.254       .  A
O209       Cr217   1.985       .  S
O209        C210   1.264       .  A
C210        O211   1.265       .  A
C210        C392   1.430       .  S
O211       Cr218   1.999       .  S
O212       Cr218   1.968       .  S
O212        C213   1.257       .  A
C213        O214   1.272       .  A
C213        C400   1.447       .  S
O214       Cr219   2.036       .  S
O215       Cr219   2.011       .  S
O215        C216   1.261       .  A
C216        C416   1.444       .  S
Cr217       O220   1.776       .  S
Cr218       O220   1.773       .  S
Cr219       O220   1.774       .  S
O221       Cr239   1.966       .  S
O221        C229   1.257       .  A
O222       Cr239   1.964       .  S
O222        C223   1.253       .  A
C223        O224   1.258       .  A
C223        C497   1.411       .  S
O224       Cr240   1.984       .  S
O225       Cr240   1.993       .  S
O225        C226   1.260       .  A
C226        O227   1.261       .  A
C226        C377   1.433       .  S
O227       Cr241   1.985       .  S
O228       Cr241   2.057       .  S
O228        C229   1.279       .  A
C229        C461   1.459       .  S
O230       Cr239   1.985       .  S
O230        C238   1.254       .  A
O231       Cr239   1.985       .  S
O231        C232   1.264       .  A
C232        O233   1.265       .  A
C232        C381   1.430       .  S
O233       Cr240   1.999       .  S
O234       Cr240   1.967       .  S
O234        C235   1.257       .  A
C235        O236   1.272       .  A
C235        C409   1.447       .  S
O236       Cr241   2.036       .  S
O237       Cr241   2.011       .  S
O237        C238   1.261       .  A
C238        C388   1.444       .  S
Cr239       O242   1.776       .  S
Cr240       O242   1.773       .  S
Cr241       O242   1.774       .  S
O243       Cr261   1.966       .  S
O243        C251   1.257       .  A
O244       Cr261   1.964       .  S
O244        C245   1.253       .  A
C245        O246   1.258       .  A
C245        C472   1.411       .  S
O246       Cr262   1.984       .  S
O247       Cr262   1.993       .  S
O247        C248   1.260       .  A
C248        O249   1.261       .  A
C248        C373   1.433       .  S
O249       Cr263   1.985       .  S
O250       Cr263   2.057       .  S
O250        C251   1.279       .  A
C251        C437   1.459       .  S
O252       Cr261   1.985       .  S
O252        C260   1.254       .  A
O253       Cr261   1.985       .  S
O253        C254   1.264       .  A
C254        O255   1.265       .  A
C254        C369   1.430       .  S
O255       Cr262   1.999       .  S
O256       Cr262   1.968       .  S
O256        C257   1.257       .  A
C257        O258   1.272       .  A
C257        C397   1.447       .  S
O258       Cr263   2.036       .  S
O259       Cr263   2.011       .  S
O259        C260   1.261       .  A
C260        C385   1.444       .  S
Cr261       O264   1.776       .  S
Cr262       O264   1.773       .  S
Cr263       O264   1.774       .  S
O265       Cr283   2.057       .  S
O265        C273   1.279       .  A
O266       Cr283   1.985       .  S
O266        C267   1.261       .  A
C267        O268   1.260       .  A
C267        C408   1.433       .  S
O268       Cr284   1.993       .  S
O269       Cr284   1.984       .  S
O269        C270   1.258       .  A
C270        O271   1.253       .  A
C270        C432   1.411       .  S
O271       Cr285   1.964       .  S
O272       Cr285   1.966       .  S
O272        C273   1.257       .  A
C273        C540   1.459       .  S
O274       Cr283   2.011       .  S
O274        C282   1.261       .  A
O275       Cr283   2.036       .  S
O275        C276   1.272       .  A
C276        O277   1.257       .  A
C276        C364   1.447       .  S
O277       Cr284   1.968       .  S
O278       Cr828   1.999       .  S
O278        C279   1.265       .  A
C279        O280   1.264       .  A
C279        C401   1.430       .  S
O280       Cr829   1.985       .  S
O281       Cr285   1.985       .  S
O281        C282   1.254       .  A
C282        C368   1.444       .  S
Cr283       O286   1.774       .  S
Cr284       O822   1.999   1_455  S
Cr284       O286   1.773       .  S
Cr285       O824   1.985   1_455  S
Cr285       O286   1.776       .  S
O287       Cr305   2.057       .  S
O287        C295   1.279       .  A
O288       Cr305   1.985       .  S
O288        C289   1.261       .  A
C289        O290   1.260       .  A
C289        C389   1.433       .  S
O290       Cr306   1.993       .  S
O291       Cr306   1.983       .  S
O291        C292   1.258       .  A
C292        O293   1.253       .  A
C292        C420   1.411       .  S
O293       Cr307   1.964       .  S
O294       Cr307   1.966       .  S
O294        C295   1.257       .  A
C295        C504   1.459       .  S
O296       Cr305   2.011       .  S
O296        C304   1.261       .  A
O297       Cr305   2.036       .  S
O297        C298   1.272       .  A
C298        O299   1.257       .  A
C298        C357   1.447       .  S
O299       Cr306   1.967       .  S
O300       Cr306   1.999       .  S
O300        C845   1.265       .  A
C301        O302   1.264       .  A
C301        O844   1.265       .  A
C301        C393   1.430   1_655  S
O302       Cr851   1.985       .  S
O303       Cr307   1.985       .  S
O303        C304   1.254       .  A
C304        C365   1.444       .  S
Cr305       O308   1.774       .  S
Cr306       O308   1.773       .  S
Cr307       O846   1.985       .  S
Cr307       O308   1.776       .  S
O309       Cr327   2.057       .  S
O309        C317   1.279       .  A
O310       Cr327   1.985       .  S
O310        C311   1.261       .  A
C311        O312   1.260       .  A
C311        C384   1.433   1_545  S
O312       Cr328   1.993       .  S
O313       Cr328   1.984       .  S
O313        C314   1.258       .  A
C314        O315   1.253       .  A
C314        C460   1.411       .  S
O315       Cr329   1.964       .  S
O316       Cr329   1.966       .  S
O316        C317   1.257       .  A
C317        C493   1.459       .  S
O318       Cr327   2.011       .  S
O318        C326   1.261       .  A
O319       Cr327   2.036       .  S
O319        C320   1.272       .  A
C320        O321   1.257       .  A
C320        C361   1.447       .  S
O321       Cr328   1.968       .  S
O322       Cr872   1.999       .  S
O322        C323   1.265       .  A
C323        O324   1.264       .  A
C323        C380   1.430       .  S
O324       Cr873   1.985       .  S
O325       Cr329   1.985       .  S
O325        C326   1.254       .  A
C326        C353   1.444       .  S
Cr327       O330   1.774       .  S
Cr328       O866   1.999   1_455  S
Cr328       O330   1.773       .  S
Cr329       O868   1.985   1_455  S
Cr329       O330   1.776       .  S
O331       Cr349   2.057       .  S
O331        C339   1.279       .  A
O332       Cr349   1.985       .  S
O332        C333   1.261       .  A
C333        O334   1.260       .  A
C333        C372   1.433       .  S
O334       Cr350   1.993       .  S
O335       Cr350   1.984       .  S
O335        C336   1.258       .  A
C336        O337   1.253       .  A
C336        C441   1.411       .  S
O337       Cr351   1.964       .  S
O338       Cr351   1.966       .  S
O338        C339   1.257       .  A
C339        C468   1.459       .  S
O340       Cr349   2.011       .  S
O340        C348   1.261       .  A
O341       Cr349   2.036       .  S
O341        C342   1.272       .  A
C342        O343   1.257       .  A
C342        C360   1.447       .  S
O343       Cr350   1.968       .  S
O344       Cr350   1.999       .  S
O344        C889   1.265       .  A
C345        O346   1.264       .  A
C345        O888   1.265       .  A
C345        C376   1.430   1_655  S
O346       Cr895   1.985       .  S
O347       Cr351   1.985       .  S
O347        C348   1.254       .  A
C348        C356   1.444       .  S
Cr349       O352   1.774       .  S
Cr350       O352   1.773       .  S
Cr351       O890   1.985       .  S
Cr351       O352   1.776       .  S
C353        C898   1.212       .  T
C354        C897   1.212       .  T
C354        C355   1.423       .  S
C355        C356   1.212       .  T
C357        C358   1.213       .  T
C358        C359   1.425       .  S
C359        C360   1.213       .  T
C361        C362   1.213       .  T
C362        C363   1.425   1_545  S
C363        C364   1.213       .  T
C365        C366   1.212       .  T
C366        C367   1.423       .  S
C367        C912   1.212       .  T
C368        C911   1.212       .  T
C369        C370   1.204       .  T
C370        C371   1.410       .  S
C371        C372   1.205       .  T
C373        C374   1.205       .  T
C374        C375   1.410       .  S
C375        C376   1.204       .  T
C377        C378   1.205   1_565  T
C378        C379   1.410       .  S
C379        C380   1.204       .  T
C381        C382   1.204       .  T
C382        C383   1.410       .  S
C383        C384   1.205       .  T
C385        C386   1.212       .  T
C386        C387   1.423       .  S
C387        C388   1.212       .  T
C389        C390   1.205       .  T
C390        C391   1.410       .  S
C391        C392   1.204       .  T
C393        C394   1.204       .  T
C394        C395   1.410       .  S
C395        C396   1.205       .  T
C397        C398   1.213       .  T
C398        C399   1.425       .  S
C399        C400   1.213       .  T
C401        C402   1.204       .  T
C402        C403   1.410       .  S
C403        C404   1.205       .  T
C405        C406   1.204       .  T
C406        C407   1.410       .  S
C407        C408   1.205   1_545  T
C409        C410   1.213       .  T
C410        C411   1.425   1_565  S
C411        C412   1.213       .  T
C413        C414   1.212       .  T
C414        C415   1.423       .  S
C415        C416   1.212       .  T
C417        C962   1.195       .  T
C418        C961   1.195       .  T
C418        C419   1.396       .  S
C419        C420   1.195       .  T
C421        C422   1.221       .  T
C422        C423   1.437       .  S
C423        C424   1.221       .  T
C425        C970   1.212       .  T
C426        C969   1.212       .  T
C426        C427   1.423       .  S
C427        C428   1.212       .  T
C429        C430   1.195   1_545  T
C430        C431   1.396       .  S
C431        C976   1.195       .  T
C432        C975   1.195       .  T
C433        C434   1.221       .  T
C434        C435   1.437       .  S
C435        C436   1.221       .  T
C437        C438   1.221       .  T
C438        C439   1.437   1_556  S
C439        C440   1.221       .  T
C441        C442   1.195       .  T
C442        C443   1.396   1_556  S
C443        C988   1.195       .  T
C444        C987   1.195       .  T
C445        C446   1.213       .  T
C446        C447   1.425       .  S
C447        C448   1.213       .  T
C449        C450   1.213       .  T
C450        C451   1.425   1_565  S
C451        C452   1.213       .  T
C453        C998   1.212       .  T
C454        C997   1.212       .  T
C454        C455   1.423       .  S
C455        C456   1.212       .  T
C457        C458   1.195       .  T
C458        C459   1.396   1_554  S
C459       C1004   1.195   1_565  T
C460       C1003   1.195   1_545  T
C461        C462   1.221       .  T
C462        C463   1.437   1_556  S
C463        C464   1.221       .  T
C465        C466   1.221       .  T
C466        C467   1.437   1_554  S
C467        C468   1.221       .  T
C469        C470   1.195       .  T
C470        C471   1.396   1_554  S
C471        C472   1.195       .  T
C473        C474   1.205       .  T
C474        C475   1.410       .  S
C475        C476   1.204       .  T
C477        C478   1.205       .  T
C478        C479   1.410       .  S
C479        C480   1.204       .  T
C481        C482   1.204       .  T
C482        C483   1.410       .  S
C483        C484   1.205   1_545  T
C485        C486   1.204       .  T
C486        C487   1.410       .  S
C487        C488   1.205       .  T
C489        C490   1.212       .  T
C490        C491   1.423       .  S
C491        C492   1.212       .  T
C493        C494   1.221       .  T
C494        C495   1.437   1_556  S
C495        C496   1.221       .  T
C497        C498   1.195       .  T
C498        C499   1.396   1_556  S
C499        C500   1.195   1_565  T
C501        C502   1.221       .  T
C502        C503   1.437       .  S
C503        C504   1.221       .  T
C505        C506   1.195       .  T
C506        C507   1.396       .  S
C507        C508   1.195       .  T
C509        C510   1.205       .  T
C510        C511   1.410       .  S
C511        C512   1.204       .  T
C513        C514   1.205       .  T
C514        C515   1.410       .  S
C515        C516   1.204       .  T
C517        C518   1.213       .  T
C518        C519   1.425       .  S
C519        C520   1.213       .  T
C521        C522   1.205       .  T
C522        C523   1.410       .  S
C523        C524   1.204       .  T
C525        C526   1.204       .  T
C526        C527   1.410       .  S
C527        C528   1.205   1_545  T
C529        C530   1.213       .  T
C530        C531   1.425   1_565  S
C531        C532   1.213       .  T
C533        C534   1.212       .  T
C534        C535   1.423       .  S
C535        C536   1.212       .  T
C537        C538   1.221       .  T
C538        C539   1.437       .  S
C539        C540   1.221       .  T
C541        C542   1.195   1_545  T
C542        C543   1.396       .  S
C543        C544   1.195       .  T
O545       Cr563   2.057       .  S
O545        C553   1.279       .  A
O546       Cr563   1.985       .  S
O546        C547   1.261       .  A
C547        O548   1.260       .  A
C547       C1072   1.433       .  S
O548       Cr564   1.993       .  S
O549       Cr564   1.984       .  S
O549        C550   1.258       .  A
C550        O551   1.253       .  A
C550       C1088   1.411       .  S
O551       Cr565   1.964       .  S
O552       Cr565   1.966       .  S
O552        C553   1.257       .  A
C553       C1081   1.459       .  S
O554       Cr563   2.011       .  S
O554        C562   1.261       .  A
O555       Cr563   2.036       .  S
O555        C556   1.272       .  A
C556        O557   1.257       .  A
C556       C1073   1.447       .  S
O557       Cr564   1.968       .  S
O558       Cr564   1.999       .  S
O558        C559   1.265       .  A
C559        O560   1.264       .  A
C559       C1068   1.430       .  S
O560       Cr565   1.985       .  S
O561       Cr565   1.985       .  S
O561        C562   1.254       .  A
C562       C1077   1.444       .  S
Cr563       O566   1.774       .  S
Cr564       O566   1.773       .  S
Cr565       O566   1.776       .  S
O567       Cr585   2.057       .  S
O567        C575   1.279       .  A
O568       Cr585   1.985       .  S
O568        C569   1.261       .  A
C569        O570   1.260       .  A
C569       C1053   1.433       .  S
O570       Cr586   1.993       .  S
O571       Cr586   1.984       .  S
O571        C572   1.258       .  A
C572        O573   1.253       .  A
C572       C1049   1.411       .  S
O573       Cr587   1.964       .  S
O574       Cr587   1.966       .  S
O574        C575   1.257       .  A
C575       C1045   1.459       .  S
O576       Cr585   2.011       .  S
O576        C584   1.261       .  A
O577       Cr585   2.036       .  S
O577        C578   1.272       .  A
C578        O579   1.257       .  A
C578       C1064   1.447       .  S
O579       Cr586   1.967       .  S
O580       Cr586   1.999       .  S
O580        C581   1.265       .  A
C581        O582   1.264       .  A
C581       C1060   1.430       .  S
O582       Cr587   1.985       .  S
O583       Cr587   1.985       .  S
O583        C584   1.254       .  A
C584       C1080   1.444       .  S
Cr585       O588   1.774       .  S
Cr586       O588   1.773       .  S
Cr587       O588   1.776       .  S
O589       Cr607   2.057       .  S
O589        C597   1.279       .  A
O590       Cr607   1.985       .  S
O590        C591   1.261       .  A
C591        O592   1.260       .  A
C591       C1032   1.433   1_545  S
O592       Cr608   1.993       .  S
O593       Cr608   1.984       .  S
O593        C594   1.258       .  A
C594        O595   1.253       .  A
C594       C1044   1.411       .  S
O595       Cr609   1.964       .  S
O596       Cr609   1.966       .  S
O596        C597   1.257       .  A
C597       C1040   1.459       .  S
O598       Cr607   2.011       .  S
O598        C606   1.261       .  A
O599       Cr607   2.036       .  S
O599        C600   1.272       .  A
C600        O601   1.257       .  A
C600       C1076   1.447       .  S
O601       Cr608   1.968       .  S
O602       Cr608   1.999       .  S
O602        C603   1.265       .  A
C603        O604   1.264       .  A
C603       C1025   1.430       .  S
O604       Cr609   1.985       .  S
O605       Cr609   1.985       .  S
O605        C606   1.254       .  A
C606       C1036   1.444       .  S
Cr607       O610   1.774       .  S
Cr608       O610   1.773       .  S
Cr609       O610   1.776       .  S
O611       Cr629   2.057       .  S
O611        C619   1.279       .  A
O612       Cr629   1.985       .  S
O612        C613   1.261       .  A
C613        O614   1.260       .  A
C613       C1017   1.433       .  S
O614       Cr630   1.993       .  S
O615       Cr630   1.984       .  S
O615        C616   1.258       .  A
C616        O617   1.253       .  A
C616       C1013   1.411       .  S
O617       Cr631   1.964       .  S
O618       Cr631   1.966       .  S
O618        C619   1.257       .  A
C619       C1009   1.459       .  S
O620       Cr629   2.011       .  S
O620        C628   1.261       .  A
O621       Cr629   2.036       .  S
O621        C622   1.272       .  A
C622        O623   1.257       .  A
C622       C1061   1.447       .  S
O623       Cr630   1.967       .  S
O624       Cr630   1.999       .  S
O624        C625   1.265       .  A
C625        O626   1.264       .  A
C625       C1024   1.430       .  S
O626       Cr631   1.985       .  S
O627       Cr631   1.985       .  S
O627        C628   1.254       .  A
C628       C1033   1.444       .  S
Cr629       O632   1.774       .  S
Cr630       O632   1.773       .  S
Cr631       O632   1.776       .  S
O633       Cr651   1.966       .  S
O633        C641   1.257       .  A
O634       Cr651   1.964       .  S
O634        C635   1.253       .  A
C635        O636   1.258       .  A
C635       C1001   1.411       .  S
O636       Cr652   1.983       .  S
O637       Cr652   1.993       .  S
O637        C638   1.260       .  A
C638        O639   1.261       .  A
C638       C1028   1.433       .  S
O639       Cr653   1.985       .  S
O640       Cr653   2.057       .  S
O640        C641   1.279       .  A
C641       C1008   1.459       .  S
O642       Cr651   1.985       .  S
O642        C650   1.254       .  A
O643        C644   1.264       .  A
C644       C1029   1.430       .  S
O645       Cr652   1.999       .  S
O646       Cr652   1.967       .  S
O646        C647   1.257       .  A
C647        O648   1.272       .  A
C647        C993   1.447       .  S
O648       Cr653   2.036       .  S
O649       Cr653   2.011       .  S
O649        C650   1.261       .  A
C650       C1000   1.444       .  S
Cr651       O654   1.776       .  S
Cr652       O654   1.773       .  S
Cr653       O654   1.774       .  S
O655       Cr673   1.966       .  S
O655        C663   1.257       .  A
O656       Cr673   1.964       .  S
O656        C657   1.253       .  A
C657        O658   1.258       .  A
C657        C988   1.411       .  S
O658       Cr674   1.984       .  S
O659       Cr674   1.992       .  S
O659        C660   1.260       .  A
C660        O661   1.261       .  A
C660       C1021   1.433       .  S
O661       Cr675   1.985       .  S
O662       Cr675   2.057       .  S
O662        C663   1.279       .  A
C663        C984   1.459       .  S
O664       Cr673   1.985       .  S
O664        C672   1.254       .  A
O665        C666   1.264       .  A
C666        O667   1.265       .  A
C666       C1020   1.430       .  S
O668       Cr674   1.968       .  S
O668        C669   1.257       .  A
C669        O670   1.272       .  A
C669        C992   1.447       .  S
O670       Cr675   2.036       .  S
O671       Cr675   2.011       .  S
O671        C672   1.261       .  A
C672        C997   1.444       .  S
Cr673       O676   1.776       .  S
Cr674       O676   1.773       .  S
Cr675       O676   1.774       .  S
O677       Cr695   1.966       .  S
O677        C685   1.257       .  A
O678       Cr695   1.964       .  S
O678        C679   1.253       .  A
C679        O680   1.258       .  A
C679        C973   1.411       .  S
O680       Cr696   1.984       .  S
O681       Cr696   1.993       .  S
O681        C682   1.260       .  A
C682        O683   1.261       .  A
C682       C1065   1.433   1_545  S
O683       Cr697   1.985       .  S
O684       Cr697   2.057       .  S
O684        C685   1.279       .  A
C685        C977   1.459       .  S
O686       Cr695   1.985       .  S
O686        C694   1.254       .  A
O687        C688   1.264       .  A
C688       C1069   1.430       .  S
O689       Cr696   1.999       .  S
O690       Cr696   1.967       .  S
O690        C691   1.257       .  A
C691        O692   1.272       .  A
C691        C996   1.447       .  S
O692       Cr697   2.036       .  S
O693       Cr697   2.011       .  S
O693        C694   1.261       .  A
C694        C972   1.444       .  S
Cr695       O698   1.776       .  S
Cr696       O698   1.773       .  S
Cr697       O698   1.774       .  S
O699       Cr717   1.966       .  S
O699        C707   1.257       .  A
O700       Cr717   1.964       .  S
O700        C701   1.253       .  A
C701        O702   1.258       .  A
C701        C961   1.411       .  S
O702       Cr718   1.984       .  S
O703       Cr718   1.993       .  S
O703        C704   1.260       .  A
C704        O705   1.261       .  A
C704       C1057   1.433       .  S
O705       Cr719   1.985       .  S
O706       Cr719   2.057       .  S
O706        C707   1.279       .  A
C707        C968   1.459       .  S
O708       Cr717   1.985       .  S
O708        C716   1.254       .  A
O709        C710   1.264       .  A
C710        O711   1.265       .  A
C710       C1056   1.430       .  S
O712       Cr718   1.968       .  S
O712        C713   1.257       .  A
C713        O714   1.272       .  A
C713        C989   1.447       .  S
O714       Cr719   2.036       .  S
O715       Cr719   2.011       .  S
O715        C716   1.261       .  A
C716        C969   1.444       .  S
Cr717       O720   1.776       .  S
Cr718       O720   1.773       .  S
Cr719       O720   1.774       .  S
O721       Cr739   1.966       .  S
O721        C729   1.257       .  A
O722       Cr739   1.964       .  S
O722        C723   1.253       .  A
C723        O724   1.258       .  A
C723       C1085   1.411       .  S
O724       Cr740   1.984       .  S
O725       Cr740   1.993       .  S
O725        C726   1.260       .  A
C726        O727   1.261       .  A
C726        C948   1.433   1_545  S
O727       Cr741   1.985       .  S
O728       Cr741   2.057       .  S
O728        C729   1.279       .  A
C729        C980   1.459       .  S
O730       Cr739   1.985       .  S
O730        C738   1.254       .  A
O731       Cr739   1.985       .  S
O731        C732   1.264       .  A
C732        O733   1.265       .  A
C732        C949   1.430       .  S
O733       Cr740   1.999       .  S
O734       Cr740   1.967       .  S
O734        C735   1.257       .  A
C735        O736   1.272       .  A
C735        C956   1.447       .  S
O736       Cr741   2.036       .  S
O737       Cr741   2.011       .  S
O737        C738   1.261       .  A
C738        C957   1.444       .  S
Cr739       O742   1.776       .  S
Cr740       O742   1.773       .  S
Cr741       O742   1.774       .  S
O743       Cr761   1.966       .  S
O743        C751   1.257       .  A
O744       Cr761   1.964       .  S
O744        C745   1.253       .  A
C745        O746   1.258       .  A
C745       C1052   1.411       .  S
O746       Cr762   1.984       .  S
O747       Cr762   1.993       .  S
O747        C748   1.260       .  A
C748        O749   1.261       .  A
C748        C940   1.433       .  S
O749       Cr763   1.985       .  S
O750       Cr763   2.057       .  S
O750        C751   1.279       .  A
C751        C965   1.459       .  S
O752       Cr761   1.985       .  S
O752        C760   1.254       .  A
O753       Cr761   1.985       .  S
O753        C754   1.264       .  A
C754        O755   1.265       .  A
C754        C936   1.430       .  S
O755       Cr762   1.999       .  S
O756       Cr762   1.968       .  S
O756        C757   1.257       .  A
C757        O758   1.272       .  A
C757        C944   1.447       .  S
O758       Cr763   2.036       .  S
O759       Cr763   2.011       .  S
O759        C760   1.261       .  A
C760        C960   1.444       .  S
Cr761       O764   1.776       .  S
Cr762       O764   1.773       .  S
Cr763       O764   1.774       .  S
O765       Cr783   1.966       .  S
O765        C773   1.257       .  A
O766       Cr783   1.964       .  S
O766        C767   1.253       .  A
C767        O768   1.258       .  A
C767       C1041   1.411       .  S
O768       Cr784   1.984       .  S
O769       Cr784   1.993       .  S
O769        C770   1.260       .  A
C770        O771   1.261       .  A
C770        C921   1.433       .  S
O771       Cr785   1.985       .  S
O772       Cr785   2.057       .  S
O772        C773   1.279       .  A
C773       C1005   1.459       .  S
O774       Cr783   1.985       .  S
O774        C782   1.254       .  A
O775       Cr783   1.985       .  S
O775        C776   1.264       .  A
C776        O777   1.265       .  A
C776        C925   1.430       .  S
O777       Cr784   1.999       .  S
O778       Cr784   1.967       .  S
O778        C779   1.257       .  A
C779        O780   1.272       .  A
C779        C953   1.447       .  S
O780       Cr785   2.036       .  S
O781       Cr785   2.011       .  S
O781        C782   1.261       .  A
C782        C932   1.444       .  S
Cr783       O786   1.776       .  S
Cr784       O786   1.773       .  S
Cr785       O786   1.774       .  S
O787       Cr805   1.966       .  S
O787        C795   1.257       .  A
O788       Cr805   1.964       .  S
O788        C789   1.253       .  A
C789        O790   1.258       .  A
C789       C1016   1.411       .  S
O790       Cr806   1.984       .  S
O791       Cr806   1.993       .  S
O791        C792   1.260       .  A
C792        O793   1.261       .  A
C792        C917   1.433       .  S
O793       Cr807   1.985       .  S
O794       Cr807   2.057       .  S
O794        C795   1.279       .  A
C795        C981   1.459       .  S
O796       Cr805   1.985       .  S
O796        C804   1.254       .  A
O797       Cr805   1.985       .  S
O797        C798   1.264       .  A
C798        O799   1.265       .  A
C798        C913   1.430       .  S
O799       Cr806   1.999       .  S
O800       Cr806   1.968       .  S
O800        C801   1.257       .  A
C801        O802   1.272       .  A
C801        C941   1.447       .  S
O802       Cr807   2.036       .  S
O803       Cr807   2.011       .  S
O803        C804   1.261       .  A
C804        C929   1.444       .  S
Cr805       O808   1.776       .  S
Cr806       O808   1.773       .  S
Cr807       O808   1.774       .  S
O809       Cr827   2.057       .  S
O809        C817   1.279       .  A
O810       Cr827   1.985       .  S
O810        C811   1.261       .  A
C811        O812   1.260       .  A
C811        C952   1.433       .  S
O812       Cr828   1.993       .  S
O813       Cr828   1.984       .  S
O813        C814   1.258       .  A
C814        O815   1.253       .  A
C814        C976   1.411       .  S
O815       Cr829   1.964       .  S
O816       Cr829   1.966       .  S
O816        C817   1.257       .  A
C817       C1084   1.459       .  S
O818       Cr827   2.011       .  S
O818        C826   1.261       .  A
O819       Cr827   2.036       .  S
O819        C820   1.272       .  A
C820        O821   1.257       .  A
C820        C908   1.447       .  S
O821       Cr828   1.968       .  S
O822        C823   1.265       .  A
C823        O824   1.264       .  A
C823        C945   1.430       .  S
O825       Cr829   1.985       .  S
O825        C826   1.254       .  A
C826        C912   1.444       .  S
Cr827       O830   1.774       .  S
Cr828       O830   1.773       .  S
Cr829       O830   1.776       .  S
O831       Cr849   2.057       .  S
O831        C839   1.279       .  A
O832       Cr849   1.985       .  S
O832        C833   1.261       .  A
C833        O834   1.260       .  A
C833        C933   1.433       .  S
O834       Cr850   1.993       .  S
O835       Cr850   1.983       .  S
O835        C836   1.258       .  A
C836        O837   1.253       .  A
C836        C964   1.411       .  S
O837       Cr851   1.964       .  S
O838       Cr851   1.966       .  S
O838        C839   1.257       .  A
C839       C1048   1.459       .  S
O840       Cr849   2.011       .  S
O840        C848   1.261       .  A
O841       Cr849   2.036       .  S
O841        C842   1.272       .  A
C842        O843   1.257       .  A
C842        C901   1.447       .  S
O843       Cr850   1.967       .  S
O844       Cr850   1.999       .  S
C845        O846   1.264       .  A
C845        C937   1.430       .  S
O847       Cr851   1.985       .  S
O847        C848   1.254       .  A
C848        C909   1.444       .  S
Cr849       O852   1.774       .  S
Cr850       O852   1.773       .  S
Cr851       O852   1.776       .  S
O853       Cr871   2.057       .  S
O853        C861   1.279       .  A
O854       Cr871   1.985       .  S
O854        C855   1.261       .  A
C855        O856   1.260       .  A
C855        C928   1.433   1_545  S
O856       Cr872   1.993       .  S
O857       Cr872   1.984       .  S
O857        C858   1.258       .  A
C858        O859   1.253       .  A
C858       C1004   1.411       .  S
O859       Cr873   1.964       .  S
O860       Cr873   1.966       .  S
O860        C861   1.257       .  A
C861       C1037   1.459       .  S
O862       Cr871   2.011       .  S
O862        C870   1.261       .  A
O863       Cr871   2.036       .  S
O863        C864   1.272       .  A
C864        O865   1.257       .  A
C864        C905   1.447       .  S
O865       Cr872   1.968       .  S
O866        C867   1.265       .  A
C867        O868   1.264       .  A
C867        C924   1.430       .  S
O869       Cr873   1.985       .  S
O869        C870   1.254       .  A
C870        C897   1.444       .  S
Cr871       O874   1.774       .  S
Cr872       O874   1.773       .  S
Cr873       O874   1.776       .  S
O875       Cr893   2.057       .  S
O875        C883   1.279       .  A
O876       Cr893   1.985       .  S
O876        C877   1.261       .  A
C877        O878   1.260       .  A
C877        C916   1.433       .  S
O878       Cr894   1.993       .  S
O879       Cr894   1.984       .  S
O879        C880   1.258       .  A
C880        O881   1.253       .  A
C880        C985   1.411       .  S
O881       Cr895   1.964       .  S
O882       Cr895   1.966       .  S
O882        C883   1.257       .  A
C883       C1012   1.459       .  S
O884       Cr893   2.011       .  S
O884        C892   1.261       .  A
O885       Cr893   2.036       .  S
O885        C886   1.272       .  A
C886        O887   1.257       .  A
C886        C904   1.447       .  S
O887       Cr894   1.968       .  S
O888       Cr894   1.999       .  S
C889        O890   1.264       .  A
C889        C920   1.430       .  S
O891       Cr895   1.985       .  S
O891        C892   1.254       .  A
C892        C900   1.444       .  S
Cr893       O896   1.774       .  S
Cr894       O896   1.773       .  S
Cr895       O896   1.776       .  S
C898        C899   1.423   1_455  S
C899        C900   1.212       .  T
C901        C902   1.213       .  T
C902        C903   1.425       .  S
C903        C904   1.213       .  T
C905        C906   1.213       .  T
C906        C907   1.425   1_545  S
C907        C908   1.213       .  T
C909        C910   1.212       .  T
C910        C911   1.423   1_655  S
C913        C914   1.204       .  T
C914        C915   1.410       .  S
C915        C916   1.205       .  T
C917        C918   1.205       .  T
C918        C919   1.410       .  S
C919        C920   1.204       .  T
C921        C922   1.205   1_565  T
C922        C923   1.410       .  S
C923        C924   1.204       .  T
C925        C926   1.204       .  T
C926        C927   1.410       .  S
C927        C928   1.205       .  T
C929        C930   1.212       .  T
C930        C931   1.423       .  S
C931        C932   1.212       .  T
C933        C934   1.205       .  T
C934        C935   1.410       .  S
C935        C936   1.204       .  T
C937        C938   1.204       .  T
C938        C939   1.410       .  S
C939        C940   1.205       .  T
C941        C942   1.213       .  T
C942        C943   1.425       .  S
C943        C944   1.213       .  T
C945        C946   1.204       .  T
C946        C947   1.410       .  S
C947        C948   1.205       .  T
C949        C950   1.204       .  T
C950        C951   1.410       .  S
C951        C952   1.205   1_545  T
C953        C954   1.213       .  T
C954        C955   1.425   1_565  S
C955        C956   1.213       .  T
C957        C958   1.212       .  T
C958        C959   1.423       .  S
C959        C960   1.212       .  T
C962        C963   1.396   1_455  S
C963        C964   1.195       .  T
C965        C966   1.221       .  T
C966        C967   1.437       .  S
C967        C968   1.221       .  T
C970        C971   1.423   1_455  S
C971        C972   1.212       .  T
C973        C974   1.195   1_545  T
C974        C975   1.396   1_655  S
C977        C978   1.221       .  T
C978        C979   1.437       .  S
C979        C980   1.221       .  T
C981        C982   1.221       .  T
C982        C983   1.437   1_556  S
C983        C984   1.221       .  T
C985        C986   1.195       .  T
C986        C987   1.396   1_656  S
C989        C990   1.213       .  T
C990        C991   1.425       .  S
C991        C992   1.213       .  T
C993        C994   1.213       .  T
C994        C995   1.425   1_565  S
C995        C996   1.213       .  T
C998        C999   1.423   1_455  S
C999       C1000   1.212       .  T
C1001      C1002   1.195       .  T
C1002      C1003   1.396   1_654  S
C1005      C1006   1.221       .  T
C1006      C1007   1.437   1_556  S
C1007      C1008   1.221       .  T
C1009      C1010   1.221       .  T
C1010      C1011   1.437   1_554  S
C1011      C1012   1.221       .  T
C1013      C1014   1.195       .  T
C1014      C1015   1.396   1_554  S
C1015      C1016   1.195       .  T
C1017      C1018   1.205       .  T
C1018      C1019   1.410       .  S
C1019      C1020   1.204       .  T
C1021      C1022   1.205       .  T
C1022      C1023   1.410       .  S
C1023      C1024   1.204       .  T
C1025      C1026   1.204       .  T
C1026      C1027   1.410       .  S
C1027      C1028   1.205   1_545  T
C1029      C1030   1.204       .  T
C1030      C1031   1.410       .  S
C1031      C1032   1.205       .  T
C1033      C1034   1.212       .  T
C1034      C1035   1.423       .  S
C1035      C1036   1.212       .  T
C1037      C1038   1.221       .  T
C1038      C1039   1.437   1_556  S
C1039      C1040   1.221       .  T
C1041      C1042   1.195       .  T
C1042      C1043   1.396   1_556  S
C1043      C1044   1.195   1_565  T
C1045      C1046   1.221       .  T
C1046      C1047   1.437       .  S
C1047      C1048   1.221       .  T
C1049      C1050   1.195       .  T
C1050      C1051   1.396       .  S
C1051      C1052   1.195       .  T
C1053      C1054   1.205       .  T
C1054      C1055   1.410       .  S
C1055      C1056   1.204       .  T
C1057      C1058   1.205       .  T
C1058      C1059   1.410       .  S
C1059      C1060   1.204       .  T
C1061      C1062   1.213       .  T
C1062      C1063   1.425       .  S
C1063      C1064   1.213       .  T
C1065      C1066   1.205       .  T
C1066      C1067   1.410       .  S
C1067      C1068   1.204       .  T
C1069      C1070   1.204       .  T
C1070      C1071   1.410       .  S
C1071      C1072   1.205   1_545  T
C1073      C1074   1.213       .  T
C1074      C1075   1.425   1_565  S
C1075      C1076   1.213       .  T
C1077      C1078   1.212       .  T
C1078      C1079   1.423       .  S
C1079      C1080   1.212       .  T
C1081      C1082   1.221       .  T
C1082      C1083   1.437       .  S
C1083      C1084   1.221       .  T
C1085      C1086   1.195   1_545  T
C1086      C1087   1.396       .  S
C1087      C1088   1.195       .  T
