geometry optimzed in LAMMPS
_audit_creation_date              2020-12-01 
_audit_creation_method            'lammps2cif' 
_symmetry_space_group_name_H-M    'P1' 
_symmetry_Int_Tables_number       1 
_symmetry_cell_setting            triclinic 
loop_ 
_symmetry_equiv_pos_as_xyz 
  x,y,z 
_cell_length_a                    32.49334334 
_cell_length_b                    35.84758460427941 
_cell_length_c                    30.235511298740843 
_cell_angle_alpha                 89.85493938410575 
_cell_angle_beta                  90.01864939959614 
_cell_angle_gamma                 89.9695745290144 
loop_ 
_atom_site_label 
_atom_site_type_symbol 
_atom_site_fract_x 
_atom_site_fract_y 
_atom_site_fract_z 
_atom_site_charge 
Fe1        Fe  0.02484037  0.07469157  0.88371032     1.65800
Fe2        Fe  0.11679401  0.11339953  0.86663101     1.73200
Fe3        Fe  0.06437029  0.13188091  0.96022055     1.54400
O4          O  0.50809123  0.15338555  0.94569732    -0.80400
O5          O  0.15775196  0.11740373  0.92036613    -0.78700
O6          O  0.47863532  0.10276854  0.91808444    -0.82900
O7          O  0.03355318  0.04147545  0.93625183    -0.77700
O8          O  0.09189602  0.18114887  0.93498211    -0.79500
O9          O  0.12672069  0.05717689  0.87004720    -0.82200
C10         C  0.02984837  0.05101891  0.97614367     0.98500
C11         C  0.47692857  0.13296106  0.94005933     1.06000
O12         O  0.06844101  0.10764513  0.90345204    -1.11200
O13         O  0.08041251  0.11045115  0.80781374    -0.73700
O14         O  0.01503436  0.10733192  0.82998655    -0.77100
O15         O  0.03662381  0.08436044  0.98960579    -0.77800
C16         C  0.04154309  0.11242343  0.80000753     0.97400
O17         O  0.06483477  0.03888139  0.84938100    -0.75800
O18         O  0.11106195  0.17010665  0.86494659    -0.81000
C19         C  0.15399728  0.11311138  0.96209338     1.00100
C20         C  0.10613639  0.19199602  0.89746909     1.06000
O21         O  0.11941312  0.11154828  0.98090602    -0.76600
C22         C  0.10185787  0.03152320  0.86014347     1.04300
Fe23       Fe  0.48843019  0.43705343  0.11492712     1.65800
Fe24       Fe  0.39606036  0.39887020  0.13067346     1.73200
Fe25       Fe  0.44973924  0.37965512  0.03809225     1.54400
O26         O  0.47804949  0.42702402  0.00898649    -0.80400
O27         O  0.40131244  0.34212468  0.13255512    -0.78700
O28         O  0.48059902  0.47012415  0.06218312    -0.82900
O29         O  0.03562990  0.40828148  0.08122910    -0.77700
O30         O  0.39497477  0.39985295  0.01614207    -0.79500
O31         O  0.43168969  0.40158852  0.18997930    -0.82200
C32         C  0.03748128  0.37801387  0.05944200     0.98500
C33         C  0.48479998  0.46039013  0.02240625     1.06000
O34         O  0.44488293  0.40428758  0.09456782    -1.11200
O35         O  0.38656652  0.45513971  0.12722743    -0.73700
O36         O  0.44831127  0.47316997  0.14869349    -0.77100
O37         O  0.00631251  0.35761730  0.05359379    -0.77800
C38         C  0.41137481  0.48066255  0.13771933     0.97400
O39         O  0.49731781  0.40436162  0.16863405    -0.75800
O40         O  0.35587338  0.39522758  0.07630905    -0.81000
C41         C  0.40689890  0.31999080  0.10039979     1.00100
C42         C  0.36016255  0.39905854  0.03458199     1.06000
O43         O  0.42178699  0.33056419  0.06309135    -0.76600
C44         C  0.47045177  0.39942013  0.19824825     1.04300
Fe45       Fe  0.23910054  0.32480279  0.88300329     1.65800
Fe46       Fe  0.14682006  0.36329789  0.86714777     1.73200
Fe47       Fe  0.20038226  0.38229201  0.95979745     1.54400
O48         O  0.22870767  0.33490023  0.98890882    -0.80400
O49         O  0.15228345  0.42002220  0.86525141    -0.78700
O50         O  0.23123492  0.29177272  0.93574927    -0.82900
O51         O  0.28566044  0.35358899  0.91655048    -0.77700
O52         O  0.14555244  0.36220028  0.98176465    -0.79500
O53         O  0.18247693  0.36046451  0.80787455    -0.82200
C54         C  0.28737495  0.38393773  0.93818897     0.98500
C55         C  0.23540726  0.30151428  0.97552263     1.06000
O56         O  0.19557886  0.35768439  0.90331191    -1.11200
O57         O  0.13715552  0.30705033  0.87067576    -0.73700
O58         O  0.19885942  0.28877941  0.84931326    -0.77100
O59         O  0.25614067  0.40428634  0.94389780    -0.77800
C60         C  0.16192733  0.28141753  0.86038119     0.97400
O61         O  0.24809725  0.35739568  0.82924447    -0.75800
O62         O  0.10659671  0.36712287  0.92148607    -0.81000
C63         C  0.15765687  0.44207093  0.89752681     1.00100
C64         C  0.11076438  0.36319716  0.96322925     1.06000
O65         O  0.17242358  0.43141198  0.93486479    -0.76600
C66         C  0.22124602  0.36251119  0.79963484     1.04300
Fe67       Fe  0.27438185  0.18733130  0.11462438     1.65800
Fe68       Fe  0.36640727  0.14874269  0.13163284     1.73200
Fe69       Fe  0.31406769  0.13022248  0.03806073     1.54400
O70         O  0.25817044  0.10806255  0.05277921    -0.80400
O71         O  0.40731778  0.14459683  0.07784516    -0.78700
O72         O  0.22827335  0.15851503  0.08038719    -0.82900
O73         O  0.28286525  0.22048901  0.06205715    -0.77700
O74         O  0.34174385  0.08109136  0.06319423    -0.79500
O75         O  0.37625590  0.20497889  0.12809177    -0.82200
C76         C  0.27915233  0.21091706  0.02217985     0.98500
C77         C  0.22684279  0.12829326  0.05845352     1.06000
O78         O  0.31808303  0.15448962  0.09481252    -1.11200
O79         O  0.33009033  0.15177540  0.19052650    -0.73700
O80         O  0.26470525  0.15473381  0.16837429    -0.77100
O81         O  0.28603482  0.17760191  0.00871080    -0.77800
C82         C  0.29123136  0.14974569  0.19836496     0.97400
O83         O  0.31434533  0.22323975  0.14879857    -0.75800
O84         O  0.36059905  0.09204772  0.13335177    -0.81000
C85         C  0.40363714  0.14882311  0.03608610     1.00100
C86         C  0.35579067  0.07020877  0.10075715     1.06000
O87         O  0.36906278  0.15058253  0.01721756    -0.76600
C88         C  0.35133007  0.23062258  0.13795545     1.04300
Fe89       Fe  0.48672500  0.07378208  0.61554505     1.65800
Fe90       Fe  0.39515930  0.11346127  0.63179773     1.73200
Fe91       Fe  0.44823395  0.13141024  0.53847691     1.54400
O92         O  0.00463628  0.15325297  0.55404059    -0.80400
O93         O  0.35448699  0.11801596  0.57779683    -0.78700
O94         O  0.03382402  0.10212712  0.58096880    -0.82900
O95         O  0.47800527  0.04055372  0.56320165    -0.77700
O96         O  0.42134965  0.18098017  0.56324460    -0.79500
O97         O  0.38452931  0.05737484  0.62852156    -0.82200
C98         C  0.48195409  0.05016051  0.52329047     0.98500
C99         C  0.03568971  0.13258074  0.55933750     1.06000
O100        O  0.44355861  0.10712831  0.59526733    -1.11200
O101        O  0.43122098  0.11010200  0.69087762    -0.73700
O102        O  0.49661737  0.10649536  0.66894297    -0.77100
O103        O  0.47547536  0.08355980  0.50963932    -0.77800
C104        C  0.47008440  0.11192033  0.69877301     0.97400
O105        O  0.44606614  0.03859910  0.64993387    -0.75800
O106        O  0.40180732  0.17003808  0.63323560    -0.81000
C107        C  0.35830026  0.11382593  0.53607579     1.00100
C108        C  0.40718163  0.19192158  0.60066949     1.06000
O109        O  0.39293539  0.11192874  0.51738607    -0.76600
C110        C  0.40912879  0.03152423  0.63869359     1.04300
Fe111      Fe  0.02371560  0.43805830  0.38353977     1.65800
Fe112      Fe  0.11585640  0.39940596  0.36771165     1.73200
Fe113      Fe  0.06209790  0.38000768  0.46023771     1.54400
O114        O  0.03407344  0.42742657  0.48941082    -0.80400
O115        O  0.11032647  0.34269684  0.36573601    -0.78700
O116        O  0.03185386  0.47086869  0.43632002    -0.82900
O117        O  0.47648772  0.40971365  0.41679614    -0.77700
O118        O  0.11704040  0.39969337  0.48223490    -0.79500
O119        O  0.08016371  0.40247054  0.30846702    -0.82200
C120        C  0.47459400  0.37921758  0.43827096     0.98500
C121        C  0.02749355  0.46091282  0.47606607     1.06000
O122        O  0.06708220  0.40490971  0.40382921    -1.11200
O123        O  0.12562809  0.45562157  0.37138022    -0.73700
O124        O  0.06402850  0.47391160  0.34968002    -0.77100
O125        O  0.00616586  0.35841185  0.44434020    -0.77800
C126        C  0.10086622  0.48127115  0.36098959     0.97400
O127        O  0.01453692  0.40564679  0.32980745    -0.75800
O128        O  0.15605001  0.39532194  0.42198566    -0.81800
C129        C  0.10453067  0.32040041  0.39781613     1.00100
C130        C  0.15182482  0.39896068  0.46371108     1.06000
O131        O  0.08968073  0.33085493  0.43513466    -0.76600
C132        C  0.04138610  0.40037049  0.30026440     1.04300
Fe133      Fe  0.27396804  0.32425458  0.61439082     1.65800
Fe134      Fe  0.36585740  0.36327737  0.63022439     1.73200
Fe135      Fe  0.31188344  0.38250825  0.53778524     1.54400
O136        O  0.28361862  0.33521520  0.50860758    -0.80400
O137        O  0.35991071  0.41997186  0.63226329    -0.78700
O138        O  0.28214813  0.29158532  0.56146617    -0.82900
O139        O  0.22711966  0.35291729  0.58098746    -0.77700
O140        O  0.36671572  0.36266060  0.51568997    -0.79500
O141        O  0.33035019  0.35999440  0.68951205    -0.82200
C142        C  0.22504212  0.38351006  0.55969497     0.98500
C143        C  0.27726769  0.30167290  0.52183188     1.06000
O144        O  0.31709664  0.35756548  0.59414612    -1.11200
O145        O  0.37605606  0.30710084  0.62660983    -0.73700
O146        O  0.31452867  0.28844195  0.64809069    -0.77100
O147        O  0.25606653  0.40413955  0.55407676    -0.77800
C148        C  0.35150843  0.28132514  0.63707305     0.97400
O149        O  0.26472726  0.35650794  0.66821776    -0.75800
O150        O  0.40582762  0.36756391  0.57584857    -0.81000
C151        C  0.35430596  0.44219725  0.60006907     1.00100
C152        C  0.40153018  0.36367025  0.53416223     1.06000
O153        O  0.33964009  0.43164175  0.56270647    -0.76600
C154        C  0.29157619  0.36191731  0.69773215     1.04300
Fe155      Fe  0.23691151  0.18800353  0.38319445     1.65800
Fe156      Fe  0.14500959  0.14907260  0.36694794     1.73200
Fe157      Fe  0.19815308  0.13050184  0.46013887     1.54400
O158        O  0.25422179  0.10880739  0.44508539    -0.80400
O159        O  0.10442385  0.14479309  0.42103758    -0.78700
O160        O  0.28348927  0.15962279  0.41751471    -0.82900
O161        O  0.22840467  0.22121290  0.43558183    -0.77700
O162        O  0.17079305  0.08116789  0.43530430    -0.79500
O163        O  0.13487748  0.20529283  0.37025712    -0.82200
C164        C  0.23250763  0.21152385  0.47545290     0.98500
C165        C  0.28530765  0.12935883  0.43951498     1.06000
O166        O  0.19351926  0.15494066  0.40342505    -1.11200
O167        O  0.18108883  0.15214545  0.30784681    -0.73700
O168        O  0.24654134  0.15525245  0.32976548    -0.77100
O169        O  0.22588719  0.17812810  0.48904388    -0.77800
C170        C  0.21994102  0.15008575  0.29992305     0.97400
O171        O  0.19653892  0.22357296  0.34880560    -0.75800
O172        O  0.15106858  0.09241968  0.36542334    -0.81000
C173        C  0.10839121  0.14873569  0.46278428     1.00100
C174        C  0.15641131  0.07041276  0.39788862     1.06000
O175        O  0.14308538  0.15034454  0.48140126    -0.76600
C176        C  0.15965508  0.23096051  0.36000327     1.04300
C177        C  0.24747345  0.24009166  0.50607781    -0.15100
C178        C  0.26184277  0.27334861  0.49113138    -0.30300
H179        H  0.24806570  0.23324320  0.54111792     0.13900
H180        H  0.26118947  0.28024913  0.45610525     0.14500
C181        C  0.43833342  0.36196447  0.50575430    -0.15100
C182        C  0.43655062  0.37026891  0.46216665    -0.30300
H183        H  0.46806249  0.35838656  0.52175347     0.13900
H184        H  0.40738215  0.37760199  0.44684979     0.14500
C185        C  0.18867559  0.40071042  0.49212724    -0.15100
C186        C  0.18696490  0.39236420  0.53572264    -0.30300
H187        H  0.21838166  0.40440519  0.47614121     0.13900
H188        H  0.15783340  0.38493866  0.55101753     0.14500
C189        C  0.11532176  0.02021811  0.36278209    -0.15100
C190        C  0.14448621  0.03086596  0.39218275    -0.30300
H191        H  0.09944666  0.04100822  0.34289194     0.13900
H192        H  0.15761995  0.01044842  0.41477436     0.14500
C193        C  0.11634310  0.28082448  0.39176897    -0.15100
C194        C  0.14534023  0.27011425  0.36219133    -0.30300
H195        H  0.10314795  0.26036108  0.41423078     0.13900
H196        H  0.16126350  0.29088559  0.34235510     0.14500
C197        C  0.36613309  0.48178566  0.60601680    -0.15100
C198        C  0.39508860  0.49253338  0.63563105    -0.30300
H199        H  0.35301713  0.50221339  0.58342958     0.13900
H200        H  0.41094949  0.47177892  0.65558481     0.14500
C201        C  0.39542814  0.23152502  0.60622212    -0.15100
C202        C  0.36621366  0.24230945  0.63547737    -0.30300
H203        H  0.40858994  0.25182924  0.58353217     0.13900
H204        H  0.35032350  0.22160672  0.65544657     0.14500
C205        C  0.01239411  0.48934161  0.50680515    -0.15100
C206        C  0.49658196  0.02149955  0.49263911    -0.30300
H207        H  0.01197810  0.48247105  0.54184128     0.13900
H208        H  0.49682225  0.02829147  0.45758279     0.14500
C209        C  0.32318933  0.12066695  0.46401078    -0.15100
C210        C  0.32129462  0.11275743  0.50775351    -0.30300
H211        H  0.35247249  0.12749758  0.44865581     0.13900
H212        H  0.29151901  0.10968400  0.52376832     0.14500
C213        C  0.07351959  0.14135819  0.53484965    -0.15100
C214        C  0.07150047  0.14978228  0.49124246    -0.30300
H215        H  0.10281909  0.13418458  0.54998483     0.13900
H216        H  0.04169009  0.15318949  0.47538014     0.14500
C217        C  0.27597787  0.14454204  0.24420633    -0.15100
C218        C  0.23512882  0.14463781  0.25412171    -0.30300
H219        H  0.29869406  0.14448022  0.27057655     0.13900
H220        H  0.21240708  0.14453207  0.22776024     0.14500
C221        C  0.27680092  0.36755538  0.74354666    -0.15100
C222        C  0.23604929  0.36783316  0.75373599    -0.30300
H223        H  0.29973545  0.36759858  0.76970202     0.13900
H224        H  0.21312212  0.36799824  0.72757533     0.14500
C225        C  0.26447180  0.23960370  0.99140849    -0.15100
C226        C  0.25033148  0.27291587  0.00627202    -0.30300
H227        H  0.26404474  0.23287856  0.95637333     0.13900
H228        H  0.25079099  0.27965706  0.04129864     0.14500
C229        C  0.48524279  0.39421462  0.24418085    -0.15100
C230        C  0.02660994  0.39468302  0.25443334    -0.30300
H231        H  0.46232235  0.39420907  0.27032954     0.13900
H232        H  0.04955382  0.39452218  0.22831057     0.14500
C233        C  0.07385611  0.36140800  0.99163916    -0.15100
C234        C  0.07554967  0.36926999  0.03534329    -0.30300
H235        H  0.04413755  0.35804061  0.97558771     0.13900
H236        H  0.10472342  0.37635153  0.05074742     0.14500
C237        C  0.32530338  0.39281493  0.96238572    -0.15100
C238        C  0.32339073  0.40089620  0.00601336    -0.30300
H239        H  0.35453974  0.38561418  0.94719037     0.13900
H240        H  0.29361151  0.40438660  0.02188571     0.14500
C241        C  0.39721323  0.01987649  0.13553439    -0.15100
C242        C  0.36786371  0.03069204  0.10638595    -0.30300
H243        H  0.41317472  0.04052478  0.15540541     0.13900
H244        H  0.35466954  0.01041287  0.08379822     0.14500
C245        C  0.36565254  0.26976140  0.13575517    -0.15100
C246        C  0.39484831  0.28046294  0.10635766    -0.30300
H247        H  0.34966702  0.29051541  0.15545573     0.13900
H248        H  0.40809363  0.26002921  0.08399239     0.14500
C249        C  0.48534422  0.11740885  0.74453215    -0.15100
C250        C  0.02629343  0.11763828  0.75417731    -0.30300
H251        H  0.46267362  0.11745945  0.77093076     0.13900
H252        H  0.04901100  0.11765659  0.72782592     0.14500
C253        C  0.49983077  0.48897529  0.99170852    -0.15100
C254        C  0.01519299  0.02229356  0.00691462    -0.30300
H255        H  0.00075471  0.48209385  0.95638938     0.13900
H256        H  0.01474012  0.02900461  0.04195393     0.14500
C257        C  0.11829149  0.23152745  0.89173681    -0.15100
C258        C  0.14744535  0.24230370  0.86231496    -0.30300
H259        H  0.10525469  0.25186428  0.91436231     0.13900
H260        H  0.16325657  0.22160838  0.84236373     0.14500
C261        C  0.11621097  0.49226617  0.86231172    -0.15100
C262        C  0.14542348  0.48157064  0.89172213    -0.30300
H263        H  0.10017713  0.97159479  0.84279356     0.13900
H264        H  0.15848934  0.50195935  0.91425565     0.14500
C265        C  0.18906085  0.11932950  0.03409338    -0.15100
C266        C  0.19099796  0.11167321  0.99034494    -0.30300
H267        H  0.15975655  0.12598370  0.04948271     0.13900
H268        H  0.22076941  0.10875251  0.97429568     0.14500
C269        C  0.43898816  0.14178431  0.96430262    -0.15100
C270        C  0.44072818  0.14997966  0.00792972    -0.30300
H271        H  0.40976492  0.13479845  0.94894018     0.13900
H272        H  0.47043719  0.15320962  0.02403831     0.14500
Fe273      Fe  0.02441252  0.57419730  0.88337813     1.65800
Fe274      Fe  0.11622748  0.61323551  0.86707712     1.73200
Fe275      Fe  0.06290753  0.63193227  0.95992779     1.54400
O276        O  0.50759159  0.65382939  0.94595610    -0.80400
O277        O  0.15669809  0.61735419  0.92124030    -0.78700
O278        O  0.47780934  0.60346598  0.91801772    -0.82900
O279        O  0.03325848  0.54113895  0.93592851    -0.77700
O280        O  0.09030428  0.68121030  0.93485161    -0.79500
O281        O  0.12630775  0.55703156  0.87068213    -0.82200
C282        C  0.02894217  0.55083530  0.97569555     0.98500
C283        C  0.47630660  0.63357061  0.94018030     1.06000
O284        O  0.06769925  0.60738679  0.90344336    -1.11200
O285        O  0.08016691  0.61018655  0.80800583    -0.73700
O286        O  0.01467641  0.60688813  0.82980745    -0.77100
O287        O  0.03519125  0.58429126  0.98908734    -0.77800
C288        C  0.04131800  0.61214288  0.80001823     0.97400
O289        O  0.06474462  0.53867358  0.84912697    -0.75800
O290        O  0.11037233  0.66994436  0.86518027    -0.81000
C291        C  0.15273534  0.61356238  0.96302772     1.00100
C292        C  0.10495840  0.69194246  0.89750742     1.06000
O293        O  0.11802920  0.61229844  0.98168959    -0.76600
C294        C  0.10165717  0.53135094  0.86030465     1.04300
Fe295      Fe  0.48878780  0.93728643  0.11452316     1.65800
Fe296      Fe  0.39654964  0.89898970  0.13053500     1.73200
Fe297      Fe  0.45024388  0.87950209  0.03806348     1.54400
O298        O  0.47863894  0.92676092  0.00870257    -0.80400
O299        O  0.40192901  0.84227047  0.13283736    -0.78700
O300        O  0.48067563  0.97009754  0.06162530    -0.82900
O301        O  0.03546706  0.90863760  0.08206210    -0.77700
O302        O  0.39541716  0.89961405  0.01603546    -0.79500
O303        O  0.43218409  0.90205926  0.18975189    -0.82200
C304        C  0.03746864  0.87829983  0.06044420     0.98500
C305        C  0.48529932  0.96018705  0.02197561     1.06000
O306        O  0.44535411  0.90432214  0.09440414    -1.11200
O307        O  0.38693956  0.95521446  0.12670374    -0.73700
O308        O  0.44862807  0.97336970  0.14818974    -0.77100
O309        O  0.00636295  0.85782914  0.05459813    -0.77800
C310        C  0.41169563  0.98078064  0.13718081     0.97400
O311        O  0.49782898  0.90487454  0.16842286    -0.75800
O312        O  0.35636096  0.89501854  0.07624440    -0.81000
C313        C  0.40743669  0.82002771  0.10077738     1.00100
C314        C  0.36061136  0.89881184  0.03451363     1.06000
O315        O  0.42227732  0.83048488  0.06338625    -0.76600
C316        C  0.47094132  0.89996577  0.19803297     1.04300
Fe317      Fe  0.23859204  0.82454519  0.88382827     1.65800
Fe318      Fe  0.14640835  0.86317352  0.86804145     1.73200
Fe319      Fe  0.20050538  0.88274882  0.96028021     1.54400
O320        O  0.22864123  0.83536574  0.98969517    -0.80400
O321        O  0.15173739  0.91991413  0.86582887    -0.78700
O322        O  0.23047176  0.79191231  0.93686497    -0.82900
O323        O  0.28541484  0.85318347  0.91710635    -0.77700
O324        O  0.14557995  0.86320617  0.98273051    -0.79500
O325        O  0.18195254  0.86024542  0.80870682    -0.82200
C326        C  0.28744878  0.88366785  0.93842232     0.98500
C327        C  0.23510873  0.80187892  0.97650249     1.06000
O328        O  0.19529453  0.85773134  0.90404010    -1.11200
O329        O  0.13668858  0.80693408  0.87174333    -0.73700
O330        O  0.19828542  0.78850832  0.85030879    -0.77100
O331        O  0.25640097  0.90428585  0.94395839    -0.77800
C332        C  0.16132333  0.78125151  0.86128467     0.97400
O333        O  0.24766879  0.85680225  0.82977616    -0.75800
O334        O  0.10639338  0.86702108  0.92248879    -0.81000
C335        C  0.15769314  0.94224323  0.89770873     1.00100
C336        C  0.11073737  0.86359569  0.96426392     1.06000
O337        O  0.17284263  0.93186322  0.93497588    -0.76600
C338        C  0.22070837  0.86214777  0.80031260     1.04300
Fe339      Fe  0.27454613  0.68797474  0.11520451     1.65800
Fe340      Fe  0.36634501  0.64885889  0.13215048     1.73200
Fe341      Fe  0.31349734  0.63039438  0.03878950     1.54400
O342        O  0.25725897  0.60875695  0.05355956    -0.80400
O343        O  0.40713642  0.64484135  0.07829494    -0.78700
O344        O  0.22805872  0.65963974  0.08085591    -0.82900
O345        O  0.28357222  0.72107637  0.06273120    -0.77700
O346        O  0.34085197  0.58105575  0.06397643    -0.79500
O347        O  0.37643029  0.70507821  0.12875467    -0.82200
C348        C  0.27944333  0.71145320  0.02292657     0.98500
C349        C  0.22616401  0.62933847  0.05910606     1.06000
O350        O  0.31793525  0.65475165  0.09544509    -1.11200
O351        O  0.32994552  0.65178288  0.19097404    -0.73700
O352        O  0.26456742  0.65534072  0.16876397    -0.77100
O353        O  0.28588245  0.67804177  0.00949442    -0.77800
C354        C  0.29104939  0.64994304  0.19870425     0.97400
O355        O  0.31469624  0.72355362  0.14962229    -0.75800
O356        O  0.36062365  0.59213903  0.13381319    -0.81000
C357        C  0.40329028  0.64885149  0.03652719     1.00100
C358        C  0.35538771  0.57022869  0.10136693     1.06000
O359        O  0.36865508  0.65024569  0.01773427    -0.76600
C360        C  0.35168630  0.73081788  0.13873137     1.04300
Fe361      Fe  0.48667225  0.57470145  0.61464418     1.65800
Fe362      Fe  0.39476601  0.61365860  0.63091794     1.73200
Fe363      Fe  0.44802978  0.63265493  0.53790928     1.54400
O364        O  0.00412188  0.65381307  0.55354801    -0.80400
O365        O  0.35427833  0.61778163  0.57680640    -0.78700
O366        O  0.03377279  0.60308377  0.58098392    -0.82900
O367        O  0.47807741  0.54181604  0.56199583    -0.77700
O368        O  0.42065412  0.68191893  0.56289885    -0.79500
O369        O  0.38474706  0.55740075  0.62749840    -0.82200
C370        C  0.48229433  0.55163652  0.52219007     0.98500
C371        C  0.03535584  0.63341137  0.55909481     1.06000
O372        O  0.44332045  0.60795625  0.59451708    -1.11200
O373        O  0.43082384  0.61060507  0.69006579    -0.73700
O374        O  0.49633576  0.60708403  0.66840655    -0.77100
O375        O  0.47578390  0.58510454  0.50875342    -0.77800
C376        C  0.46967023  0.61239939  0.69814846     0.97400
O377        O  0.44640570  0.53896021  0.64880512    -0.75800
O378        O  0.40048066  0.67038111  0.63254408    -0.81000
C379        C  0.35825707  0.61407359  0.53504722     1.00100
C380        C  0.40599329  0.69251880  0.60023846     1.06000
O381        O  0.39294128  0.61304697  0.51633969    -0.76600
C382        C  0.40948721  0.53166704  0.63770790     1.04300
Fe383      Fe  0.02350455  0.93818991  0.38380997     1.65800
Fe384      Fe  0.11536133  0.89920526  0.36732301     1.73200
Fe385      Fe  0.06171377  0.87957819  0.45992282     1.54400
O386        O  0.03389266  0.92690509  0.48950588    -0.80400
O387        O  0.10966238  0.84254555  0.36517508    -0.78700
O388        O  0.03226881  0.97064220  0.43676814    -0.82900
O389        O  0.47637045  0.90875375  0.41692517    -0.77700
O390        O  0.11675553  0.89905221  0.48176947    -0.79500
O391        O  0.07940869  0.90237415  0.30834412    -0.82200
C392        C  0.47442786  0.87827189  0.43844405     0.98500
C393        C  0.02757650  0.96049167  0.47639644     1.06000
O394        O  0.06671688  0.90471819  0.40364448    -1.11200
O395        O  0.12541553  0.95539118  0.37100163    -0.73700
O396        O  0.06377967  0.97402315  0.34987409    -0.77100
O397        O  0.00564812  0.85824469  0.44407148    -0.77800
C398        C  0.10074999  0.98117787  0.36084274     0.97400
O399        O  0.01384989  0.90609632  0.32992030    -0.75800
O400        O  0.15570751  0.89500323  0.42142696    -0.81800
C401        C  0.10380661  0.82015157  0.39712937     1.00100
C402        C  0.15150902  0.89855869  0.46316546     1.06000
O403        O  0.08903393  0.83047680  0.43451293    -0.76600
C404        C  0.04058817  0.90047101  0.30034115     1.04300
Fe405      Fe  0.27290105  0.82510961  0.61459591     1.65800
Fe406      Fe  0.36501989  0.86367984  0.63046489     1.73200
Fe407      Fe  0.31136297  0.88309099  0.53784335     1.54400
O408        O  0.28313036  0.83583732  0.50861336    -0.80400
O409        O  0.35926560  0.92033078  0.63241997    -0.78700
O410        O  0.28075294  0.79236731  0.56164985    -0.82900
O411        O  0.22628823  0.85396425  0.58118749    -0.77700
O412        O  0.36622888  0.86312046  0.51588258    -0.79500
O413        O  0.32946386  0.86055451  0.68974880    -0.82200
C414        C  0.22442728  0.88440028  0.55958725     0.98500
C415        C  0.27644604  0.80236652  0.52189492     1.06000
O416        O  0.31628134  0.85817167  0.59429380    -1.11200
O417        O  0.37490889  0.80749268  0.62691663    -0.73700
O418        O  0.31325200  0.78903906  0.64823260    -0.77100
O419        O  0.25554430  0.90488688  0.55383934    -0.77800
C420        C  0.35020366  0.78179009  0.63719856     0.97400
O421        O  0.26382995  0.85740222  0.66849254    -0.75800
O422        O  0.40519258  0.86772588  0.57616373    -0.81000
C423        C  0.35378263  0.94259373  0.60025161     1.00100
C424        C  0.40100716  0.86383549  0.53445477     1.06000
O425        O  0.33915434  0.93215211  0.56283459    -0.76600
C426        C  0.29071040  0.86252560  0.69804686     1.04300
Fe427      Fe  0.23651572  0.68830875  0.38288668     1.65800
Fe428      Fe  0.14466356  0.64914110  0.36671994     1.73200
Fe429      Fe  0.19770841  0.63108597  0.46005831     1.54400
O430        O  0.25372761  0.60923396  0.44502794    -0.80400
O431        O  0.10408890  0.64494741  0.42081094    -0.78700
O432        O  0.28306254  0.65989769  0.41708683    -0.82900
O433        O  0.22825771  0.72172322  0.43519701    -0.77700
O434        O  0.17021569  0.58168335  0.43556619    -0.79500
O435        O  0.13438842  0.70528500  0.36962804    -0.82200
C436        C  0.23218065  0.71211525  0.47512493     0.98500
C437        C  0.28488600  0.62962892  0.43905994     1.06000
O438        O  0.19311229  0.65531944  0.40324204    -1.11200
O439        O  0.18066692  0.65213319  0.30764798    -0.73700
O440        O  0.24606192  0.65538646  0.32966198    -0.77100
O441        O  0.22551148  0.67874729  0.48876804    -0.77800
C442        C  0.21951619  0.65010738  0.29981621     0.97400
O443        O  0.19609846  0.72376320  0.34843185    -0.75800
O444        O  0.15092706  0.59253532  0.36547999    -0.81000
C445        C  0.10800987  0.64924846  0.46251050     1.00100
C446        C  0.15601893  0.57072061  0.39815795     1.06000
O447        O  0.14268470  0.65116048  0.48113110    -0.76600
C448        C  0.15910603  0.73099199  0.35935056     1.04300
C449        C  0.24688346  0.74073949  0.50584181    -0.15100
C450        C  0.26137631  0.77398846  0.49103160    -0.30300
H451        H  0.24711019  0.73394357  0.54090042     0.13900
H452        H  0.26111932  0.78082397  0.45598226     0.14500
C453        C  0.43792013  0.86174634  0.50614089    -0.15100
C454        C  0.43631023  0.86945172  0.46236933    -0.30300
H455        H  0.46760265  0.85834973  0.52228955     0.13900
H456        H  0.40718113  0.87655809  0.44682044     0.14500
C457        C  0.18835127  0.90054622  0.49154972    -0.15100
C458        C  0.18649223  0.89313477  0.53536840    -0.30300
H459        H  0.21810909  0.90375009  0.47551990     0.13900
H460        H  0.15728137  0.88625822  0.55084814     0.14500
C461        C  0.11519568  0.52037299  0.36301422    -0.15100
C462        C  0.14406505  0.53116619  0.39267572    -0.30300
H463        H  0.09946476  0.54105746  0.34283841     0.13900
H464        H  0.15702703  0.51085264  0.41551321     0.14500
C465        C  0.11554059  0.78062465  0.39088493    -0.15100
C466        C  0.14460154  0.77004835  0.36134335    -0.30300
H467        H  0.10236945  0.76010645  0.41329626     0.13900
H468        H  0.16052082  0.79087142  0.34157562     0.14500
C469        C  0.36578984  0.98206937  0.60635867    -0.15100
C470        C  0.39454812  0.99252504  0.63631578    -0.30300
H471        H  0.35298631  0.00262580  0.58371925     0.13900
H472        H  0.41012011  0.97163480  0.65633289     0.14500
C473        C  0.39399484  0.73205827  0.60601285    -0.15100
C474        C  0.36474219  0.74271485  0.63530817    -0.30300
H475        H  0.40718512  0.75249375  0.58350650     0.13900
H476        H  0.34882306  0.72193595  0.65513657     0.14500
C477        C  0.01230175  0.98880476  0.50717865    -0.15100
C478        C  0.49722297  0.52308381  0.49150109    -0.30300
H479        H  0.01162364  0.98184705  0.54218716     0.13900
H480        H  0.49769151  0.52990961  0.45645393     0.14500
C481        C  0.32293791  0.62079569  0.46312593    -0.15100
C482        C  0.32127414  0.61258008  0.50677363    -0.30300
H483        H  0.35209510  0.62797538  0.44771499     0.13900
H484        H  0.29158655  0.60910770  0.52286038     0.14500
C485        C  0.07313835  0.64233453  0.53461897    -0.15100
C486        C  0.07109558  0.65033223  0.49090821    -0.30300
H487        H  0.10248034  0.63552720  0.54989265     0.13900
H488        H  0.04127396  0.65335747  0.47495891     0.14500
C489        C  0.27567925  0.64450205  0.24440824    -0.15100
C490        C  0.23480002  0.64461022  0.25411650    -0.30300
H491        H  0.29831228  0.64432321  0.27086153     0.13900
H492        H  0.21215913  0.64457765  0.22767223     0.14500
C493        C  0.27602777  0.86781906  0.74397951    -0.15100
C494        C  0.23531902  0.86767658  0.75436054    -0.30300
H495        H  0.29904588  0.86793633  0.77004755     0.13900
H496        H  0.21229632  0.86776369  0.72829899     0.14500
C497        C  0.26463730  0.74015644  0.99226665    -0.15100
C498        C  0.25038469  0.77340948  0.00722386    -0.30300
H499        H  0.26406088  0.73342789  0.95723712     0.13900
H500        H  0.25099471  0.78017025  0.04224476     0.14500
C501        C  0.48563933  0.89479632  0.24397850    -0.15100
C502        C  0.02568956  0.89456969  0.25464086    -0.30300
H503        H  0.46264835  0.89464554  0.27005322     0.13900
H504        H  0.04860229  0.89423094  0.22848820     0.14500
C505        C  0.07390762  0.86162752  0.99275871    -0.15100
C506        C  0.07558411  0.86962918  0.03641659    -0.30300
H507        H  0.04419996  0.85798327  0.97676949     0.13900
H508        H  0.10471611  0.87694296  0.05176190     0.14500
C509        C  0.32551456  0.89241763  0.96245252    -0.15100
C510        C  0.32377550  0.90064987  0.00603830    -0.30300
H511        H  0.35466813  0.88501821  0.94720784     0.13900
H512        H  0.29405519  0.90431447  0.02198310     0.14500
C513        C  0.39692037  0.51980590  0.13610061    -0.15100
C514        C  0.36752175  0.53068125  0.10698826    -0.30300
H515        H  0.41291346  0.54042769  0.15598459     0.13900
H516        H  0.35428163  0.51040665  0.08443144     0.14500
C517        C  0.36621214  0.76991208  0.13651429    -0.15100
C518        C  0.39530498  0.78052321  0.10693137    -0.30300
H519        H  0.35040938  0.79072003  0.15630684     0.13900
H520        H  0.40834852  0.76003329  0.08450872     0.14500
C521        C  0.48474425  0.61775026  0.74404109    -0.15100
C522        C  0.02619814  0.61753345  0.75420159    -0.30300
H523        H  0.46195959  0.61785820  0.77032229     0.13900
H524        H  0.04895024  0.61760101  0.72788500     0.14500
C525        C  0.50075956  0.98863506  0.99135310    -0.15100
C526        C  0.01420809  0.52214091  0.00637051    -0.30300
H527        H  0.00141576  0.98229491  0.95700446     0.13900
H528        H  0.01359510  0.52888599  0.04139618     0.14500
C529        C  0.11709241  0.73146345  0.89182843    -0.15100
C530        C  0.14666630  0.74219047  0.86289569    -0.30300
H531        H  0.10377184  0.75181262  0.91424345     0.13900
H532        H  0.16270087  0.72147126  0.84318331     0.14500
C533        C  0.11629135  0.99239941  0.86228878    -0.15100
C534        C  0.14570616  0.98177264  0.89151101    -0.30300
H535        H  0.10040583  0.47153144  0.84242418     0.13900
H536        H  0.15910719  0.00227199  0.91367259     0.14500
C537        C  0.18809974  0.62061407  0.03494308    -0.15100
C538        C  0.18974993  0.61223404  0.99136569    -0.30300
H539        H  0.15892776  0.62788790  0.05023310     0.13900
H540        H  0.21944434  0.60868533  0.97534189     0.14500
C541        C  0.43844433  0.64240350  0.96454067    -0.15100
C542        C  0.44029768  0.65021958  0.00825914    -0.30300
H543        H  0.40917441  0.63560857  0.94915807     0.13900
H544        H  0.47004840  0.65330600  0.02431594     0.14500
Fe545      Fe  0.52499039  0.07437685  0.88362037     1.65800
Fe546      Fe  0.61686967  0.11328196  0.86682939     1.73200
Fe547      Fe  0.56424083  0.13157183  0.96029032     1.54400
O548        O  0.00820471  0.15387682  0.94586555    -0.80400
O549        O  0.65777071  0.11741920  0.92068947    -0.78700
O550        O  0.97861718  0.10335611  0.91809788    -0.82900
O551        O  0.53383620  0.04106355  0.93595816    -0.77700
O552        O  0.59153065  0.18094581  0.93520201    -0.79500
O553        O  0.62687861  0.05704445  0.87021457    -0.82200
C554        C  0.52999692  0.05054029  0.97584617     0.98500
C555        C  0.97697999  0.13351383  0.94016591     1.06000
O556        O  0.56850701  0.10737568  0.90354079    -1.11200
O557        O  0.58045346  0.11035620  0.80794568    -0.73700
O558        O  0.51508423  0.10719199  0.83013362    -0.77100
O559        O  0.53667140  0.08386506  0.98944243    -0.77800
C560        C  0.54156449  0.11233763  0.80015525     0.97400
O561        O  0.56510630  0.03878082  0.84915965    -0.75800
O562        O  0.61102165  0.16998498  0.86524601    -0.81000
C563        C  0.65398113  0.11344656  0.96247310     1.00100
C564        C  0.60586441  0.19184351  0.89776346     1.06000
O565        O  0.61937297  0.11161493  0.98120377    -0.76600
C566        C  0.60206476  0.03139297  0.86014645     1.04300
Fe567      Fe  0.98898354  0.43704444  0.11470571     1.65800
Fe568      Fe  0.89675248  0.39870635  0.13058947     1.73200
Fe569      Fe  0.95033463  0.37946629  0.03794148     1.54400
O570        O  0.97845789  0.42686528  0.00870419    -0.80400
O571        O  0.90234199  0.34203817  0.13267824    -0.78700
O572        O  0.98105824  0.46997986  0.06188901    -0.82900
O573        O  0.53497099  0.40823655  0.08138315    -0.77700
O574        O  0.89535799  0.39942069  0.01599122    -0.79500
O575        O  0.93234824  0.40170869  0.18989777    -0.82200
C576        C  0.53677630  0.37793285  0.05967209     0.98500
C577        C  0.98520156  0.46023435  0.02211340     1.06000
O578        O  0.94551235  0.40416870  0.09440151    -1.11200
O579        O  0.88702637  0.45491262  0.12690265    -0.73700
O580        O  0.94872546  0.47311683  0.14832382    -0.77100
O581        O  0.50557087  0.35758900  0.05382910    -0.77800
C582        C  0.91177704  0.48050510  0.13730093     0.97400
O583        O  0.99796864  0.40452100  0.16857057    -0.75800
O584        O  0.85648997  0.39479578  0.07632696    -0.81000
C585        C  0.90788581  0.31984279  0.10058354     1.00100
C586        C  0.86059869  0.39865409  0.03458631     1.06000
O587        O  0.92262412  0.33034226  0.06317287    -0.76600
C588        C  0.97110562  0.39961378  0.19820003     1.04300
Fe589      Fe  0.73856696  0.32502095  0.88359241     1.65800
Fe590      Fe  0.64619744  0.36323179  0.86753361     1.73200
Fe591      Fe  0.69977817  0.38272913  0.96015065     1.54400
O592        O  0.72794953  0.33542256  0.98958150    -0.80400
O593        O  0.65141325  0.41999509  0.86534227    -0.78700
O594        O  0.73075255  0.29217572  0.93655874    -0.82900
O595        O  0.78513142  0.35388422  0.91695052    -0.77700
O596        O  0.64485087  0.36277899  0.98207976    -0.79500
O597        O  0.68187082  0.36022189  0.80825232    -0.82200
C598        C  0.78697417  0.38418707  0.93864673     0.98500
C599        C  0.73486418  0.30204216  0.97630949     1.06000
O600        O  0.69501431  0.35792898  0.90374987    -1.11200
O601        O  0.63670722  0.30696879  0.87140563    -0.73700
O602        O  0.69843973  0.28884801  0.85002752    -0.77100
O603        O  0.75577084  0.40456161  0.94457575    -0.77800
C604        C  0.66154674  0.28139573  0.86111232     0.97400
O605        O  0.74750031  0.35744318  0.82963075    -0.75800
O606        O  0.60590442  0.36712129  0.92174891    -0.81000
C607        C  0.65704230  0.44223655  0.89739389     1.00100
C608        C  0.61007404  0.36341072  0.96350305     1.06000
O609        O  0.67198775  0.43178232  0.93474478    -0.76600
C610        C  0.72063459  0.36231748  0.79997110     1.04300
Fe611      Fe  0.77493056  0.18840017  0.11531976     1.65800
Fe612      Fe  0.86658199  0.14887705  0.13214129     1.73200
Fe613      Fe  0.81379051  0.13078774  0.03880110     1.54400
O614        O  0.75764337  0.10930587  0.05388340    -0.80400
O615        O  0.90736512  0.14470738  0.07820087    -0.78700
O616        O  0.72838891  0.16029093  0.08081072    -0.82900
O617        O  0.78394875  0.22160059  0.06285332    -0.77700
O618        O  0.84100147  0.08132442  0.06381684    -0.79500
O619        O  0.87691254  0.20502146  0.12876316    -0.82200
C620        C  0.77976353  0.21193366  0.02305069     0.98500
C621        C  0.72660412  0.12999797  0.05903131     1.06000
O622        O  0.81825145  0.15508817  0.09546079    -1.11200
O623        O  0.83021740  0.15196363  0.19101604    -0.73700
O624        O  0.76483433  0.15572363  0.16887730    -0.77100
O625        O  0.78625081  0.17852400  0.00963947    -0.77800
C626        C  0.79131831  0.15030025  0.19881831     0.97400
O627        O  0.81528484  0.22366985  0.14983514    -0.75800
O628        O  0.86047634  0.09218714  0.13377546    -0.81000
C629        C  0.90362132  0.14883316  0.03642028     1.00100
C630        C  0.85532123  0.07035739  0.10124086     1.06000
O631        O  0.86900674  0.15047284  0.01759799    -0.76600
C632        C  0.85226355  0.23081455  0.13881298     1.04300
Fe633      Fe  0.98719124  0.07375381  0.61517787     1.65800
Fe634      Fe  0.89540019  0.11297028  0.63140971     1.73200
Fe635      Fe  0.94868841  0.13163346  0.53842856     1.54400
O636        O  0.50453143  0.15270344  0.55333886    -0.80400
O637        O  0.85496939  0.11716772  0.57717048    -0.78700
O638        O  0.53350414  0.10183817  0.58128551    -0.82900
O639        O  0.97843364  0.04076486  0.56265687    -0.77700
O640        O  0.92112817  0.18090020  0.56319759    -0.79500
O641        O  0.88519912  0.05680770  0.62816638    -0.82200
C642        C  0.98292486  0.05060692  0.52289967     0.98500
C643        C  0.53553173  0.13206139  0.55923156     1.06000
O644        O  0.94390959  0.10703299  0.59503410    -1.11200
O645        O  0.93146166  0.10994075  0.69051148    -0.73700
O646        O  0.99694473  0.10628076  0.66875145    -0.77100
O647        O  0.97660650  0.08409955  0.50946460    -0.77800
C648        C  0.97031834  0.11181034  0.69847540     0.97400
O649        O  0.94681687  0.03821516  0.64948477    -0.75800
O650        O  0.90136587  0.16961332  0.63300876    -0.81000
C651        C  0.85898448  0.11328829  0.53541753     1.00100
C652        C  0.90663567  0.19162549  0.60056126     1.06000
O653        O  0.89369814  0.11185964  0.51681411    -0.76600
C654        C  0.90986007  0.03103519  0.63842090     1.04300
Fe655      Fe  0.52319565  0.43833845  0.38330259     1.65800
Fe656      Fe  0.61522717  0.39944617  0.36756516     1.73200
Fe657      Fe  0.56158223  0.38044075  0.46019889     1.54400
O658        O  0.53343248  0.42788792  0.48920475    -0.80400
O659        O  0.60937295  0.34279297  0.36574048    -0.78700
O660        O  0.53119817  0.47124349  0.43602536    -0.82900
O661        O  0.97701831  0.40945231  0.41714645    -0.77700
O662        O  0.61657918  0.40017521  0.48218578    -0.79500
O663        O  0.57958327  0.40248954  0.30831332    -0.82200
C664        C  0.97507842  0.37898424  0.43868544     0.98500
C665        C  0.52680237  0.46134620  0.47578444     1.06000
O666        O  0.56654063  0.40521557  0.40371836    -1.11200
O667        O  0.62523214  0.45562618  0.37105824    -0.73700
O668        O  0.56364261  0.47415279  0.34952702    -0.77100
O669        O  0.50573907  0.35875360  0.44411718    -0.77800
C670        C  0.60054945  0.48136933  0.36075565     0.97400
O671        O  0.51399439  0.40583502  0.32966122    -0.75800
O672        O  0.65542689  0.39528449  0.42186228    -0.81800
C673        C  0.60390416  0.32065938  0.39803197     1.00100
C674        C  0.65133863  0.39910710  0.46359006     1.06000
O675        O  0.58926006  0.33125900  0.43537382    -0.76600
C676        C  0.54081073  0.40038205  0.30014823     1.04300
Fe677      Fe  0.77372362  0.32423492  0.61450403     1.65800
Fe678      Fe  0.86575887  0.36280742  0.63069424     1.73200
Fe679      Fe  0.81212568  0.38245197  0.53801908     1.54400
O680        O  0.78415949  0.33508821  0.50867201    -0.80400
O681        O  0.86039044  0.41952408  0.63267953    -0.78700
O682        O  0.78231220  0.29162688  0.56172395    -0.82900
O683        O  0.72705596  0.35292218  0.58078526    -0.77700
O684        O  0.86713140  0.36281060  0.51612423    -0.79500
O685        O  0.82985445  0.35979308  0.68982233    -0.82200
C686        C  0.72501343  0.38344116  0.55933900     0.98500
C687        C  0.77774292  0.30158553  0.52202621     1.06000
O688        O  0.81704205  0.35747061  0.59444573    -1.11200
O689        O  0.87552604  0.30657952  0.62708592    -0.73700
O690        O  0.81389973  0.28822020  0.64845519    -0.77100
O691        O  0.75607169  0.40403444  0.55367991    -0.77800
C692        C  0.85082252  0.28090340  0.63742134     0.97400
O693        O  0.76425187  0.35644027  0.66834337    -0.75800
O694        O  0.90606597  0.36682401  0.57649673    -0.81000
C695        C  0.85465152  0.44187198  0.60063029     1.00100
C696        C  0.90189385  0.36340398  0.53472656     1.06000
O697        O  0.83969382  0.43153160  0.56330824    -0.76600
C698        C  0.79104359  0.36176042  0.69795234     1.04300
Fe699      Fe  0.73711521  0.18850789  0.38373033     1.65800
Fe700      Fe  0.64524631  0.14955973  0.36744721     1.73200
Fe701      Fe  0.69878460  0.13033489  0.46024698     1.54400
O702        O  0.75486196  0.10889395  0.44462356    -0.80400
O703        O  0.60488467  0.14517229  0.42160958    -0.78700
O704        O  0.78388798  0.16002807  0.41763494    -0.82900
O705        O  0.72848305  0.22125281  0.43637237    -0.77700
O706        O  0.67144910  0.08113036  0.43499951    -0.79500
O707        O  0.63513430  0.20574580  0.37114807    -0.82200
C708        C  0.73298493  0.21135486  0.47609834     0.98500
C709        C  0.78588085  0.12955520  0.43919891     1.06000
O710        O  0.69386104  0.15520654  0.40379994    -1.11200
O711        O  0.68119843  0.15289348  0.30830234    -0.73700
O712        O  0.74671494  0.15616805  0.33002735    -0.77100
O713        O  0.72655357  0.17786464  0.48951175    -0.77800
C714        C  0.72003913  0.15094477  0.30028051     0.97400
O715        O  0.69669828  0.22429127  0.34972925    -0.75800
O716        O  0.65102746  0.09283185  0.36545695    -0.81000
C717        C  0.60893141  0.14865388  0.46339461     1.00100
C718        C  0.65667332  0.07060652  0.39766376     1.06000
O719        O  0.64365521  0.14976280  0.48204530    -0.76600
C720        C  0.65976074  0.23150283  0.36084846     1.04300
C721        C  0.74817892  0.23987230  0.50662133    -0.15100
C722        C  0.76250076  0.27310942  0.49147802    -0.30300
H723        H  0.74885690  0.23307491  0.54167453     0.13900
H724        H  0.76182043  0.27991517  0.45642651     0.14500
C725        C  0.93877358  0.36175696  0.50633000    -0.15100
C726        C  0.93704062  0.37015741  0.46273515    -0.30300
H727        H  0.96848616  0.35804580  0.52231727     0.13900
H728        H  0.90788555  0.37757067  0.44744329     0.14500
C729        C  0.68833852  0.40069858  0.49186306    -0.15100
C730        C  0.68683416  0.39233507  0.53546806    -0.30300
H731        H  0.71798912  0.40430404  0.47573051     0.13900
H732        H  0.65773886  0.38498188  0.55089289     0.14500
C733        C  0.61506077  0.02039244  0.36295580    -0.15100
C734        C  0.64469008  0.03104536  0.39184117    -0.30300
H735        H  0.59890747  0.04120438  0.34335642     0.13900
H736        H  0.65814987  0.01058456  0.41414662     0.14500
C737        C  0.61596880  0.28114913  0.39222856    -0.15100
C738        C  0.64515538  0.27055568  0.36282262    -0.30300
H739        H  0.60288195  0.26068852  0.41476898     0.13900
H740        H  0.66097058  0.29136807  0.34294453     0.14500
C741        C  0.86665380  0.48137743  0.60673085    -0.15100
C742        C  0.89598582  0.49189944  0.63603612    -0.30300
H743        H  0.85330140  0.50195058  0.58449204     0.13900
H744        H  0.91205779  0.47101850  0.65560749     0.14500
C745        C  0.89453902  0.23114262  0.60621020    -0.15100
C746        C  0.86534194  0.24181862  0.63556473    -0.30300
H747        H  0.90763018  0.25154357  0.58359759     0.13900
H748        H  0.84950160  0.22106451  0.65550677     0.14500
C749        C  0.51162422  0.48981165  0.50645067    -0.15100
C750        C  0.99798273  0.02210785  0.49226742    -0.30300
H751        H  0.51115167  0.48298177  0.54149607     0.13900
H752        H  0.99863246  0.02903122  0.45725127     0.14500
C753        C  0.82387267  0.12072073  0.46343929    -0.15100
C754        C  0.82206294  0.11210759  0.50699435    -0.30300
H755        H  0.85308137  0.12808053  0.44825938     0.13900
H756        H  0.79232040  0.10851193  0.52291979     0.14500
C757        C  0.57364584  0.14069089  0.53515119    -0.15100
C758        C  0.57198926  0.14980671  0.49174177    -0.30300
H759        H  0.60276039  0.13290864  0.55028189     0.13900
H760        H  0.54231520  0.15386300  0.47579699     0.14500
C761        C  0.77599205  0.14503148  0.24459744    -0.15100
C762        C  0.73514421  0.14550931  0.25447425    -0.30300
H763        H  0.79869484  0.14461478  0.27097717     0.13900
H764        H  0.71242224  0.14570196  0.22811158     0.14500
C765        C  0.77617546  0.36736395  0.74377707    -0.15100
C766        C  0.73541650  0.36744043  0.75399693    -0.30300
H767        H  0.79909641  0.36761100  0.76993826     0.13900
H768        H  0.71248690  0.36736949  0.72783853     0.14500
C769        C  0.76484621  0.24053469  0.99230372    -0.15100
C770        C  0.75005186  0.27361146  0.00715366    -0.30300
H771        H  0.76466606  0.23385879  0.95725592     0.13900
H772        H  0.75020569  0.28028851  0.04220278     0.14500
C773        C  0.98586644  0.39447187  0.24416841    -0.15100
C774        C  0.52599814  0.39449810  0.25438103    -0.30300
H775        H  0.96291796  0.39446119  0.27029091     0.13900
H776        H  0.54891674  0.39431762  0.22823180     0.14500
C777        C  0.57315810  0.36144500  0.99187533    -0.15100
C778        C  0.57482981  0.36913419  0.03561481    -0.30300
H779        H  0.54344876  0.35811131  0.97578825     0.13900
H780        H  0.60399473  0.37614248  0.05108247     0.14500
C781        C  0.82513058  0.39297342  0.96255098    -0.15100
C782        C  0.82361281  0.40066238  0.00628988    -0.30300
H783        H  0.85424419  0.38592353  0.94700030     0.13900
H784        H  0.79395074  0.40401636  0.02246231     0.14500
C785        C  0.89672291  0.01984639  0.13591700    -0.15100
C786        C  0.86735550  0.03076688  0.10679279    -0.30300
H787        H  0.91269166  0.04046101  0.15583125     0.13900
H788        H  0.85412189  0.01052925  0.08418452     0.14500
C789        C  0.86685897  0.26983275  0.13649228    -0.15100
C790        C  0.89582596  0.28035971  0.10675195    -0.30300
H791        H  0.85116583  0.29067252  0.15633610     0.13900
H792        H  0.90876034  0.25985519  0.08426948     0.14500
C793        C  0.98545993  0.11749539  0.74424122    -0.15100
C794        C  0.52621228  0.11761236  0.75436248    -0.30300
H795        H  0.96273316  0.11769521  0.77057750     0.13900
H796        H  0.54886720  0.11776998  0.72795429     0.14500
C797        C  0.00017259  0.48882727  0.99141964    -0.15100
C798        C  0.51522672  0.02176971  0.00642264    -0.30300
H799        H  0.50011819  0.48234110  0.95664830     0.13900
H800        H  0.51478589  0.02838115  0.04148748     0.14500
C801        C  0.61786708  0.23140682  0.89213687    -0.15100
C802        C  0.64720058  0.24225193  0.86298077    -0.30300
H803        H  0.60457443  0.25170161  0.91464051     0.13900
H804        H  0.66323437  0.22159311  0.84318060     0.14500
C805        C  0.61542394  0.49240522  0.86221741    -0.15100
C806        C  0.64493831  0.48175571  0.89131818    -0.30300
H807        H  0.60057580  0.97150509  0.84256952     0.13900
H808        H  0.65835818  0.50223451  0.91349905     0.14500
C809        C  0.68884244  0.12133433  0.03439602    -0.15100
C810        C  0.69091776  0.11266178  0.99090221    -0.30300
H811        H  0.65952232  0.12859958  0.04936643     0.13900
H812        H  0.72073458  0.10917469  0.97511759     0.14500
C813        C  0.93902140  0.14230354  0.96447031    -0.15100
C814        C  0.94072544  0.15009537  0.00821604    -0.30300
H815        H  0.90978693  0.13553675  0.94899657     0.13900
H816        H  0.97043914  0.15314168  0.02436109     0.14500
Fe817      Fe  0.52396943  0.57479224  0.88362664     1.65800
Fe818      Fe  0.61599844  0.61341322  0.86681072     1.73200
Fe819      Fe  0.56367082  0.63176706  0.96040433     1.54400
O820        O  0.00686360  0.65349952  0.94426327    -0.80400
O821        O  0.65698943  0.61749512  0.92063986    -0.78700
O822        O  0.97774760  0.60243135  0.91751094    -0.82900
O823        O  0.53247998  0.54145910  0.93605351    -0.77700
O824        O  0.59127511  0.68105152  0.93529575    -0.79500
O825        O  0.62585201  0.55717302  0.87019720    -0.82200
C826        C  0.52889855  0.55091819  0.97598344     0.98500
C827        C  0.97584097  0.63282904  0.93904343     1.06000
O828        O  0.56765986  0.60761326  0.90358006    -1.11200
O829        O  0.57962073  0.61049395  0.80790320    -0.73700
O830        O  0.51422084  0.60754707  0.82996526    -0.77100
O831        O  0.53585295  0.58419142  0.98958421    -0.77800
C832        C  0.54076060  0.61255060  0.80000807     0.97400
O833        O  0.56398378  0.53895325  0.84932391    -0.75800
O834        O  0.61026028  0.67011556  0.86517981    -0.81000
C835        C  0.65332625  0.61331377  0.96241399     1.00100
C836        C  0.60550156  0.69194232  0.89779068     1.06000
O837        O  0.61874937  0.61149008  0.98122225    -0.76600
C838        C  0.60098738  0.53154816  0.86016294     1.04300
Fe839      Fe  0.98860493  0.93731258  0.11526513     1.65800
Fe840      Fe  0.89628089  0.89885498  0.13055157     1.73200
Fe841      Fe  0.95053752  0.87968047  0.03833382     1.54400
O842        O  0.97892014  0.92712860  0.00935177    -0.80400
O843        O  0.90168173  0.84208071  0.13253072    -0.78700
O844        O  0.98106930  0.97036431  0.06242546    -0.82900
O845        O  0.53539129  0.90844435  0.08108281    -0.77700
O846        O  0.89573505  0.89963256  0.01595209    -0.79500
O847        O  0.93154736  0.90171569  0.19006294    -0.82200
C848        C  0.53730859  0.87800203  0.05964757     0.98500
C849        C  0.98560378  0.96053332  0.02271903     1.06000
O850        O  0.94525867  0.90441050  0.09469280    -1.11200
O851        O  0.88657098  0.95512226  0.12696793    -0.73700
O852        O  0.94816123  0.97332089  0.14872988    -0.77100
O853        O  0.50614436  0.85756515  0.05391424    -0.77800
C854        C  0.91125591  0.98071940  0.13755151     0.97400
O855        O  0.99723828  0.90461572  0.16899386    -0.75800
O856        O  0.85644205  0.89510338  0.07600848    -0.81000
C857        C  0.90748990  0.81991531  0.10044409     1.00100
C858        C  0.86086040  0.89891114  0.03430769     1.06000
O859        O  0.92260452  0.83049990  0.06323437    -0.76600
C860        C  0.97027465  0.89961304  0.19848835     1.04300
Fe861      Fe  0.73905713  0.82457057  0.88354657     1.65800
Fe862      Fe  0.64679468  0.86312705  0.86770420     1.73200
Fe863      Fe  0.70060741  0.88237113  0.96017931     1.54400
O864        O  0.72881819  0.83497722  0.98943455    -0.80400
O865        O  0.65209603  0.91986180  0.86572241    -0.78700
O866        O  0.73114826  0.79170301  0.93642073    -0.82900
O867        O  0.78575609  0.85326880  0.91688863    -0.77700
O868        O  0.64567331  0.86252989  0.98234018    -0.79500
O869        O  0.68241826  0.86043641  0.80845762    -0.82200
C870        C  0.78766600  0.88368760  0.93833995     0.98500
C871        C  0.73544117  0.80154721  0.97614928     1.06000
O872        O  0.69561712  0.85757707  0.90381472    -1.11200
O873        O  0.63713777  0.80687994  0.87126009    -0.73700
O874        O  0.69879662  0.78850442  0.84996420    -0.77100
O875        O  0.75650253  0.90412960  0.94412420    -0.77800
C876        C  0.66185488  0.78119985  0.86102386     0.97400
O877        O  0.74805677  0.85711001  0.82975527    -0.75800
O878        O  0.60664826  0.86681116  0.92203045    -0.81000
C879        C  0.65778852  0.94204553  0.89779527     1.00100
C880        C  0.61086948  0.86311249  0.96378276     1.06000
O881        O  0.67279994  0.93151553  0.93507431    -0.76600
C882        C  0.72118228  0.86251984  0.80024099     1.04300
Fe883      Fe  0.77470503  0.68734886  0.11512628     1.65800
Fe884      Fe  0.86666273  0.64848697  0.13151585     1.73200
Fe885      Fe  0.81351946  0.62996295  0.03843316     1.54400
O886        O  0.75750905  0.60815625  0.05354455    -0.80400
O887        O  0.90719152  0.64425040  0.07740090    -0.78700
O888        O  0.72816878  0.65893779  0.08089207    -0.82900
O889        O  0.78324760  0.72054882  0.06262060    -0.77700
O890        O  0.84110800  0.58070083  0.06348406    -0.79500
O891        O  0.87669160  0.70472203  0.12781862    -0.82200
C892        C  0.77916872  0.71094635  0.02279147     0.98500
C893        C  0.72639850  0.62871400  0.05896650     1.06000
O894        O  0.81810637  0.65430109  0.09506538    -1.11200
O895        O  0.83060741  0.65160555  0.19065690    -0.73700
O896        O  0.76513492  0.65460775  0.16875623    -0.77100
O897        O  0.78565649  0.67755517  0.00932221    -0.77800
C898        C  0.79175726  0.64961790  0.19865523     0.97400
O899        O  0.81504591  0.72298947  0.14927861    -0.75800
O900        O  0.86079719  0.59179765  0.13335353    -0.81000
C901        C  0.90318288  0.64834820  0.03565660     1.00100
C902        C  0.85559297  0.56988513  0.10089929     1.06000
O903        O  0.86847427  0.64997890  0.01707110    -0.76600
C904        C  0.85192875  0.73039029  0.13803423     1.04300
Fe905      Fe  0.98741018  0.57431796  0.61507404     1.65800
Fe906      Fe  0.89528453  0.61295207  0.63158309     1.73200
Fe907      Fe  0.94818637  0.63193459  0.53838577     1.54400
O908        O  0.50406939  0.65417892  0.55333013    -0.80400
O909        O  0.85463731  0.61700991  0.57758841    -0.78700
O910        O  0.53325810  0.60316743  0.58057809    -0.82900
O911        O  0.97911278  0.54132590  0.56250214    -0.77700
O912        O  0.92056235  0.68108981  0.56340010    -0.79500
O913        O  0.88549786  0.55671763  0.62825526    -0.82200
C914        C  0.98303479  0.55112356  0.52265990     0.98500
C915        C  0.53511561  0.63353026  0.55878926     1.06000
O916        O  0.94378716  0.60731017  0.59503148    -1.11200
O917        O  0.93140456  0.60998190  0.69058034    -0.73700
O918        O  0.99686819  0.60681595  0.66871085    -0.77100
O919        O  0.97618890  0.58452646  0.50920305    -0.77800
C920        C  0.97024100  0.61202164  0.69849874     0.97400
O921        O  0.94732913  0.53834283  0.64918738    -0.75800
O922        O  0.90084226  0.66967790  0.63321453    -0.81000
C923        C  0.85851918  0.61319210  0.53583084     1.00100
C924        C  0.90607505  0.69174937  0.60079819     1.06000
O925        O  0.89317184  0.61195106  0.51707891    -0.76600
C926        C  0.91036189  0.53102275  0.63824866     1.04300
Fe927      Fe  0.52304530  0.93780267  0.38381543     1.65800
Fe928      Fe  0.61521490  0.89929527  0.36776843     1.73200
Fe929      Fe  0.56148108  0.87944848  0.46026741     1.54400
O930        O  0.53322067  0.92653844  0.48981759    -0.80400
O931        O  0.60957383  0.84259852  0.36548857    -0.78700
O932        O  0.53087900  0.97019085  0.43699689    -0.82900
O933        O  0.97678468  0.90965227  0.41751468    -0.77700
O934        O  0.61642283  0.89922519  0.48233616    -0.79500
O935        O  0.57971753  0.90262256  0.30849674    -0.82200
C936        C  0.97469006  0.87904370  0.43876236     0.98500
C937        C  0.52645654  0.96003204  0.47666541     1.06000
O938        O  0.56642560  0.90462624  0.40394219    -1.11200
O939        O  0.62507051  0.95553190  0.37153702    -0.73700
O940        O  0.56334465  0.97415874  0.35050908    -0.77100
O941        O  0.50555736  0.85777382  0.44431682    -0.77800
C942        C  0.60038746  0.98131167  0.36131475     0.97400
O943        O  0.51406479  0.90582739  0.32966912    -0.75800
O944        O  0.65538468  0.89499819  0.42203528    -0.81800
C945        C  0.60394918  0.82020253  0.39750161     1.00100
C946        C  0.65120526  0.89857847  0.46377483     1.06000
O947        O  0.58921662  0.83050578  0.43491663    -0.76600
C948        C  0.54097967  0.90062875  0.30018151     1.04300
Fe949      Fe  0.77335715  0.82468171  0.61526829     1.65800
Fe950      Fe  0.86564652  0.86301490  0.63090563     1.73200
Fe951      Fe  0.81185082  0.88239178  0.53829626     1.54400
O952        O  0.78384993  0.83496460  0.50925174    -0.80400
O953        O  0.86004150  0.91967551  0.63283571    -0.78700
O954        O  0.78104119  0.79170750  0.56255526    -0.82900
O955        O  0.72664598  0.85338212  0.58173011    -0.77700
O956        O  0.86683327  0.86262723  0.51642979    -0.79500
O957        O  0.83013710  0.86001693  0.69019081    -0.82200
C958        C  0.72470775  0.88366180  0.55982251     0.98500
C959        C  0.77693494  0.80158387  0.52273443     1.06000
O960        O  0.81681362  0.85757288  0.59477717    -1.11200
O961        O  0.87534942  0.80678755  0.62734890    -0.73700
O962        O  0.81370579  0.78865613  0.64906020    -0.77100
O963        O  0.75582918  0.90410365  0.55382521    -0.77800
C964        C  0.85056074  0.78120085  0.63781643     0.97400
O965        O  0.76450961  0.85734449  0.66884328    -0.75800
O966        O  0.90585005  0.86709902  0.57666438    -0.81000
C967        C  0.85425107  0.94196055  0.60074335     1.00100
C968        C  0.90162991  0.86347593  0.53493771     1.06000
O969        O  0.83941023  0.93153406  0.56340160    -0.76600
C970        C  0.79140131  0.86239548  0.69839234     1.04300
Fe971      Fe  0.73694986  0.68831680  0.38369419     1.65800
Fe972      Fe  0.64514882  0.64919293  0.36680191     1.73200
Fe973      Fe  0.69778815  0.63070083  0.46038868     1.54400
O974        O  0.75394332  0.60896073  0.44574064    -0.80400
O975        O  0.60427749  0.64514491  0.42066216    -0.78700
O976        O  0.78333930  0.65968762  0.41797596    -0.82900
O977        O  0.72823153  0.72131902  0.43626125    -0.77700
O978        O  0.67043187  0.58138797  0.43548837    -0.79500
O979        O  0.63494883  0.70537581  0.36973766    -0.82200
C980        C  0.73214147  0.71157343  0.47613388     0.98500
C981        C  0.78510639  0.62939139  0.43992888     1.06000
O982        O  0.69348924  0.65513801  0.40357884    -1.11200
O983        O  0.68152504  0.65206566  0.30794575    -0.73700
O984        O  0.74690498  0.65591374  0.33001341    -0.77100
O985        O  0.72543636  0.67817837  0.48960876    -0.77800
C986        C  0.72041459  0.65030465  0.30016566     0.97400
O987        O  0.69679154  0.72405328  0.34929681    -0.75800
O988        O  0.65109239  0.59253729  0.36548488    -0.81000
C989        C  0.60807059  0.64918262  0.46241397     1.00100
C990        C  0.65616393  0.57059194  0.39804507     1.06000
O991        O  0.64267646  0.65069669  0.48122198    -0.76600
C992        C  0.65968388  0.73116774  0.35983896     1.04300
C993        C  0.74694119  0.74009535  0.50690127    -0.15100
C994        C  0.76178055  0.77318841  0.49200351    -0.30300
H995        H  0.74699769  0.73336288  0.54198206     0.13900
H996        H  0.76171744  0.77992216  0.45692739     0.14500
C997        C  0.93847621  0.86187295  0.50648850    -0.15100
C998        C  0.93667777  0.87030191  0.46290825    -0.30300
H999        H  0.96821478  0.85814999  0.52241802     0.13900
H1000       H  0.90750591  0.87777073  0.44769353     0.14500
C1001       C  0.68814154  0.90041272  0.49211513    -0.15100
C1002       C  0.68656557  0.89237249  0.53580399    -0.30300
H1003       H  0.71781108  0.90399623  0.47601701     0.13900
H1004       H  0.65745573  0.88509786  0.55124916     0.14500
C1005       C  0.61506846  0.52042768  0.36281202    -0.15100
C1006       C  0.64408887  0.53107221  0.39239306    -0.30300
H1007       H  0.59934192  0.54121001  0.34277467     0.13900
H1008       H  0.65705325  0.51066052  0.41510714     0.14500
C1009       C  0.61589535  0.78070570  0.39130648    -0.15100
C1010       C  0.64503391  0.77019992  0.36180992    -0.30300
H1011       H  0.60280678  0.76015035  0.41373026     0.13900
H1012       H  0.66089243  0.79106927  0.34205877     0.14500
C1013       C  0.86615492  0.98147082  0.60682029    -0.15100
C1014       C  0.89531293  0.99199090  0.63630884    -0.30300
H1015       H  0.85296839  0.00200826  0.58441964     0.13900
H1016       H  0.91121745  0.97112399  0.65606058     0.14500
C1017       C  0.89403032  0.73128947  0.60650433    -0.15100
C1018       C  0.86490997  0.74204980  0.63590700    -0.30300
H1019       H  0.90715731  0.75167184  0.58389124     0.13900
H1020       H  0.84903205  0.72133684  0.65587318     0.14500
C1021       C  0.51116916  0.98829020  0.50752149    -0.15100
C1022       C  0.99795653  0.52261732  0.49192105    -0.30300
H1023       H  0.51090454  0.98144760  0.54256856     0.13900
H1024       H  0.99833178  0.52946306  0.45687822     0.14500
C1025       C  0.82314558  0.62047802  0.46402278    -0.15100
C1026       C  0.82149451  0.61189648  0.50758449    -0.30300
H1027       H  0.85230623  0.62780480  0.44871646     0.13900
H1028       H  0.79181504  0.60830500  0.52364939     0.14500
C1029       C  0.57298345  0.64222154  0.53436486    -0.15100
C1030       C  0.57108269  0.65042933  0.49069687    -0.30300
H1031       H  0.60223555  0.63509599  0.54963883     0.13900
H1032       H  0.54132509  0.65379436  0.47470716     0.14500
C1033       C  0.77658011  0.64455718  0.24456057    -0.15100
C1034       C  0.73572429  0.64458587  0.25446033    -0.30300
H1035       H  0.79929239  0.64472417  0.27093277     0.13900
H1036       H  0.71302136  0.64420205  0.22808184     0.14500
C1037       C  0.77668961  0.86800841  0.74421774    -0.15100
C1038       C  0.73594922  0.86823865  0.75441825    -0.30300
H1039       H  0.79963721  0.86787963  0.77035959     0.13900
H1040       H  0.71300679  0.86856135  0.72827680     0.14500
C1041       C  0.76447611  0.73965900  0.99207762    -0.15100
C1042       C  0.75043482  0.77300402  0.00693992    -0.30300
H1043       H  0.76390830  0.73289288  0.95705937     0.13900
H1044       H  0.75101377  0.77978870  0.04195487     0.14500
C1045       C  0.98494321  0.89442086  0.24445365    -0.15100
C1046       C  0.52634719  0.89509881  0.25430112    -0.30300
H1047       H  0.96200893  0.89454170  0.27058840     0.13900
H1048       H  0.54934652  0.89507894  0.22822989     0.14500
C1049       C  0.57393419  0.86111564  0.99213125    -0.15100
C1050       C  0.57546543  0.86911774  0.03578931    -0.30300
H1051       H  0.54427077  0.85757122  0.97601401     0.13900
H1052       H  0.60457079  0.87635580  0.05124091     0.14500
C1053       C  0.82577889  0.89254090  0.96223404    -0.15100
C1054       C  0.82408137  0.90086744  0.00577986    -0.30300
H1055       H  0.85491415  0.88505859  0.94700192     0.13900
H1056       H  0.79437071  0.90461607  0.02171925     0.14500
C1057       C  0.89724706  0.51960270  0.13557518    -0.15100
C1058       C  0.86774588  0.53036435  0.10654254    -0.30300
H1059       H  0.91327114  0.54029559  0.15532415     0.13900
H1060       H  0.85445228  0.51003584  0.08408611     0.14500
C1061       C  0.86631004  0.76955116  0.13583981    -0.15100
C1062       C  0.89541623  0.78034277  0.10635044    -0.30300
H1063       H  0.85043761  0.79026497  0.15570232     0.13900
H1064       H  0.90858025  0.75995030  0.08388056     0.14500
C1065       C  0.98537112  0.61751343  0.74426035    -0.15100
C1066       C  0.52556604  0.61779610  0.75411831    -0.30300
H1067       H  0.96262104  0.61764293  0.77057906     0.13900
H1068       H  0.54833512  0.61787345  0.72782101     0.14500
C1069       C  0.00090609  0.98903632  0.99203153    -0.15100
C1070       C  0.51424120  0.52215875  0.00666648    -0.30300
H1071       H  0.50125612  0.98197466  0.95630227     0.13900
H1072       H  0.51399662  0.52875816  0.04173797     0.14500
C1073       C  0.61786724  0.73143393  0.89216956    -0.15100
C1074       C  0.64726239  0.74210874  0.86296261    -0.30300
H1075       H  0.60476773  0.75181385  0.91469971     0.13900
H1076       H  0.66311625  0.72135215  0.84314504     0.14500
C1077       C  0.61648188  0.99226043  0.86233130    -0.15100
C1078       C  0.64567077  0.98156959  0.89178965    -0.30300
H1079       H  0.59928981  0.47161493  0.84272423     0.13900
H1080       H  0.65883961  0.00200808  0.91418966     0.14500
C1081       C  0.68853809  0.62007208  0.03442805    -0.15100
C1082       C  0.69040442  0.61223492  0.99068854    -0.30300
H1083       H  0.65924807  0.62683379  0.04978248     0.13900
H1084       H  0.72016797  0.60922369  0.97465163     0.14500
C1085       C  0.93801217  0.64151316  0.96352969    -0.15100
C1086       C  0.94004883  0.64956976  0.00717784    -0.30300
H1087       H  0.90870826  0.63451006  0.94835300     0.13900
H1088       H  0.96986811  0.65280784  0.02304250     0.14500
loop_ 
_geom_bond_atom_site_label_1 
_geom_bond_atom_site_label_2 
_geom_bond_distance 
_geom_bond_site_symmetry_2 
_ccdc_geom_bond_type 
Fe1          O17   2.102       .  S
Fe1           O7   2.003       .  S
Fe1          O14   2.025       .  S
Fe1         O550   2.097   1_455  S
Fe1          O12   1.940       .  S
Fe2           O5   2.105       .  S
Fe2           O9   2.043       .  S
Fe2          O13   2.138       .  S
Fe2          O18   2.042       .  S
Fe2          O12   1.937       .  S
Fe3          O21   2.029       .  S
Fe3           O8   2.121       .  S
Fe3          O15   2.121       .  S
Fe3         O548   2.034       .  S
Fe3          O12   1.930       .  S
O4         Fe547   2.033       .  S
O4           C11   1.262       .  A
O5           C19   1.276       .  A
O6         Fe545   2.096       .  S
O6           C11   1.273       .  A
O7           C10   1.260       .  A
O8           C20   1.285       .  A
O9           C22   1.261       .  A
C10          O15   1.283       .  A
C10         C254   1.466   1_556  S
C11         C269   1.469       .  S
O13          C16   1.287       .  A
O14          C16   1.264       .  A
C16         C250   1.483       .  S
O17          C22   1.273       .  A
O18          C20   1.270       .  A
C19          O21   1.261       .  A
C19         C266   1.475       .  S
C20         C257   1.481       .  S
C22         C533   1.480   1_545  S
Fe23         O39   2.021       .  S
Fe23         O36   2.103       .  S
Fe23         O28   2.001       .  S
Fe23        O573   2.095       .  S
Fe23         O34   1.941       .  S
Fe24         O27   2.042       .  S
Fe24         O31   2.137       .  S
Fe24         O35   2.043       .  S
Fe24         O40   2.103       .  S
Fe24         O34   1.936       .  S
Fe25         O43   2.119       .  S
Fe25         O30   2.031       .  S
Fe25         O26   2.121       .  S
Fe25        O581   2.035       .  S
Fe25         O34   1.931       .  S
O26          C33   1.283       .  A
O27          C41   1.269       .  A
O28          C33   1.261       .  A
O29        Fe567   2.095   1_455  S
O29          C32   1.272       .  A
O30          C42   1.262       .  A
O31          C44   1.286       .  A
C32          O37   1.262       .  A
C32         C234   1.470       .  S
C33         C253   1.465   1_554  S
O35          C38   1.261       .  A
O36          C38   1.273       .  A
O37        Fe569   2.035   1_455  S
C38         C513   1.480       .  S
O39          C44   1.263       .  A
O40          C42   1.276       .  A
C41          O43   1.284       .  A
C41         C246   1.481       .  S
C42         C238   1.475       .  S
C44         C229   1.481       .  S
Fe45         O61   2.021       .  S
Fe45         O51   2.095       .  S
Fe45         O58   2.103       .  S
Fe45         O50   2.000       .  S
Fe45         O56   1.941       .  S
Fe46         O49   2.042       .  S
Fe46         O53   2.137       .  S
Fe46         O57   2.043       .  S
Fe46         O62   2.104       .  S
Fe46         O56   1.935       .  S
Fe47         O65   2.118       .  S
Fe47         O52   2.033       .  S
Fe47         O59   2.034       .  S
Fe47         O48   2.121       .  S
Fe47         O56   1.931       .  S
O48          C55   1.283       .  A
O49          C63   1.269       .  A
O50          C55   1.260       .  A
O51          C54   1.272       .  A
O52          C64   1.262       .  A
O53          C66   1.286       .  A
C54          O59   1.262       .  A
C54         C237   1.468       .  S
C55         C226   1.465   1_556  S
O57          C60   1.261       .  A
O58          C60   1.274       .  A
C60         C258   1.480       .  S
O61          C66   1.263       .  A
O62          C64   1.277       .  A
C63          O65   1.284       .  A
C63         C262   1.480       .  S
C64         C233   1.477       .  S
C66         C222   1.481       .  S
Fe67         O83   2.102       .  S
Fe67         O73   2.002       .  S
Fe67         O80   2.024       .  S
Fe67         O72   2.095       .  S
Fe67         O78   1.940       .  S
Fe68         O71   2.106       .  S
Fe68         O75   2.044       .  S
Fe68         O79   2.139       .  S
Fe68         O84   2.042       .  S
Fe68         O78   1.935       .  S
Fe69         O87   2.030       .  S
Fe69         O74   2.116       .  S
Fe69         O81   2.119       .  S
Fe69         O70   2.032       .  S
Fe69         O78   1.930       .  S
O70          C77   1.262       .  A
O71          C85   1.277       .  A
O72          C77   1.273       .  A
O73          C76   1.260       .  A
O74          C86   1.284       .  A
O75          C88   1.261       .  A
C76          O81   1.282       .  A
C76         C225   1.465   1_554  S
C77         C265   1.468       .  S
O79          C82   1.287       .  A
O80          C82   1.263       .  A
C82         C217   1.484       .  S
O83          C88   1.274       .  A
O84          C86   1.270       .  A
C85          O87   1.261       .  A
C85         C270   1.476       .  S
C86         C242   1.479       .  S
C88         C245   1.480       .  S
Fe89        O105   2.101       .  S
Fe89         O95   2.003       .  S
Fe89        O102   2.024       .  S
Fe89        O638   2.096       .  S
Fe89        O100   1.941       .  S
Fe90         O93   2.106       .  S
Fe90         O97   2.043       .  S
Fe90        O101   2.139       .  S
Fe90        O106   2.040       .  S
Fe90        O100   1.936       .  S
Fe91        O109   2.031       .  S
Fe91         O96   2.118       .  S
Fe91        O103   2.120       .  S
Fe91        O636   2.033       .  S
Fe91        O100   1.929       .  S
O92        Fe635   2.033   1_455  S
O92          C99   1.262       .  A
O93         C107   1.277       .  A
O94        Fe633   2.097   1_455  S
O94          C99   1.273       .  A
O95          C98   1.261       .  A
O96         C108   1.284       .  A
O97         C110   1.261       .  A
C98         O103   1.283       .  A
C98         C206   1.465       .  S
C99         C213   1.469       .  S
O101        C104   1.287       .  A
O102        C104   1.263       .  A
C104        C249   1.483       .  S
O105        C110   1.273       .  A
O106        C108   1.270       .  A
C107        O109   1.261       .  A
C107        C210   1.477       .  S
C108        C201   1.480       .  S
C110        C470   1.478   1_545  S
Fe111       O127   2.022       .  S
Fe111       O124   2.100       .  S
Fe111       O116   2.002       .  S
Fe111       O661   2.094   1_455  S
Fe111       O122   1.941       .  S
Fe112       O115   2.042       .  S
Fe112       O119   2.136       .  S
Fe112       O123   2.044       .  S
Fe112       O128   2.102       .  S
Fe112       O122   1.935       .  S
Fe113       O131   2.119       .  S
Fe113       O118   2.032       .  S
Fe113       O125   2.034       .  S
Fe113       O114   2.122       .  S
Fe113       O122   1.930       .  S
O114        C121   1.283       .  A
O115        C129   1.269       .  A
O116        C121   1.261       .  A
O117       Fe655   2.093       .  S
O117        C120   1.272       .  A
O118        C130   1.262       .  A
O119        C132   1.286       .  A
C120        O669   1.262       .  A
C120        C182   1.467       .  S
C121        C205   1.465       .  S
O123        C126   1.261       .  A
O124        C126   1.273       .  A
O125        C664   1.262   1_455  A
C126        C461   1.479       .  S
O127        C132   1.263       .  A
O128        C130   1.276       .  A
C129        O131   1.284       .  A
C129        C193   1.481       .  S
C130        C185   1.475       .  S
C132        C230   1.481       .  S
Fe133       O149   2.021       .  S
Fe133       O139   2.094       .  S
Fe133       O146   2.101       .  S
Fe133       O138   2.003       .  S
Fe133       O144   1.940       .  S
Fe134       O137   2.043       .  S
Fe134       O141   2.135       .  S
Fe134       O145   2.044       .  S
Fe134       O150   2.101       .  S
Fe134       O144   1.935       .  S
Fe135       O153   2.119       .  S
Fe135       O140   2.032       .  S
Fe135       O147   2.033       .  S
Fe135       O136   2.122       .  S
Fe135       O144   1.930       .  S
O136        C143   1.283       .  A
O137        C151   1.269       .  A
O138        C143   1.261       .  A
O139        C142   1.272       .  A
O140        C152   1.262       .  A
O141        C154   1.286       .  A
C142        O147   1.262       .  A
C142        C186   1.468       .  S
C143        C178   1.466       .  S
O145        C148   1.261       .  A
O146        C148   1.273       .  A
C148        C202   1.479       .  S
O149        C154   1.263       .  A
O150        C152   1.276       .  A
C151        O153   1.284       .  A
C151        C197   1.482       .  S
C152        C181   1.474       .  S
C154        C221   1.481       .  S
Fe155       O171   2.102       .  S
Fe155       O161   2.003       .  S
Fe155       O168   2.024       .  S
Fe155       O160   2.096       .  S
Fe155       O166   1.941       .  S
Fe156       O159   2.107       .  S
Fe156       O163   2.045       .  S
Fe156       O167   2.140       .  S
Fe156       O172   2.041       .  S
Fe156       O166   1.935       .  S
Fe157       O175   2.030       .  S
Fe157       O162   2.119       .  S
Fe157       O169   2.121       .  S
Fe157       O158   2.033       .  S
Fe157       O166   1.929       .  S
O158        C165   1.262       .  A
O159        C173   1.277       .  A
O160        C165   1.272       .  A
O161        C164   1.261       .  A
O162        C174   1.284       .  A
O163        C176   1.261       .  A
C164        O169   1.283       .  A
C164        C177   1.465       .  S
C165        C209   1.469       .  S
O167        C170   1.287       .  A
O168        C170   1.263       .  A
C170        C218   1.484       .  S
O171        C176   1.273       .  A
O172        C174   1.270       .  A
C173        O175   1.261       .  A
C173        C214   1.476       .  S
C174        C190   1.480       .  S
C176        C194   1.480       .  S
C177        C178   1.357       .  D
C177        H179   1.087       .  S
C178        H180   1.087       .  S
C181        C182   1.352       .  D
C181        H183   1.088       .  S
C182        H184   1.087       .  S
C185        C186   1.352       .  D
C185        H187   1.088       .  S
C186        H188   1.087       .  S
C189        C398   1.479   1_545  S
C189        C190   1.355       .  D
C189        H191   1.086       .  S
C190        H192   1.087       .  S
C193        C194   1.355       .  D
C193        H195   1.087       .  S
C194        H196   1.086       .  S
C197        C198   1.355       .  D
C197        H199   1.087       .  S
C198        C382   1.481       .  S
C198        H200   1.086       .  S
C201        C202   1.355       .  D
C201        H203   1.087       .  S
C202        H204   1.086       .  S
C205       C1022   1.357   1_455  D
C205        H207   1.087       .  S
C206       C1021   1.357   1_545  D
C206        H208   1.087       .  S
C209        C210   1.353       .  D
C209        H211   1.087       .  S
C210        H212   1.088       .  S
C213        C214   1.353       .  D
C213        H215   1.087       .  S
C214        H216   1.087       .  S
C217        C218   1.361       .  D
C217        H219   1.086       .  S
C218        H220   1.086       .  S
C221        C222   1.360       .  D
C221        H223   1.086       .  S
C222        H224   1.086       .  S
C225        C226   1.357   1_556  D
C225        H227   1.087       .  S
C226        H228   1.087       .  S
C229        C774   1.360       .  D
C229        H231   1.086       .  S
C230        C773   1.360   1_455  D
C230        H232   1.086       .  S
C233        C234   1.353   1_556  D
C233        H235   1.088       .  S
C234        H236   1.087       .  S
C237        C238   1.353   1_556  D
C237        H239   1.087       .  S
C238        H240   1.088       .  S
C241        C310   1.479   1_545  S
C241        C242   1.354       .  D
C241        H243   1.086       .  S
C242        H244   1.087       .  S
C245        C246   1.355       .  D
C245        H247   1.086       .  S
C246        H248   1.087       .  S
C249        C794   1.361       .  D
C249        H251   1.086       .  S
C250        C793   1.360   1_455  D
C250        H252   1.086       .  S
C253       C1070   1.357   1_556  D
C253        H799   1.087       .  S
C254       C1069   1.357   1_544  D
C254        H256   1.087       .  S
H255        C797   1.087       .  S
C257        C258   1.355       .  D
C257        H259   1.087       .  S
C258        H260   1.086       .  S
C261        C294   1.480       .  S
C261        C262   1.355       .  D
C261        H535   1.086       .  S
C262        H264   1.087       .  S
H263        C533   1.086       .  S
C265        C266   1.353   1_554  D
C265        H267   1.087       .  S
C266        H268   1.088       .  S
C269        C270   1.353   1_556  D
C269        H271   1.087       .  S
C270        H272   1.087       .  S
Fe273       O289   2.102       .  S
Fe273       O279   2.000       .  S
Fe273       O286   2.022       .  S
Fe273       O822   2.096   1_455  S
Fe273       O284   1.941       .  S
Fe274       O277   2.105       .  S
Fe274       O281   2.044       .  S
Fe274       O285   2.139       .  S
Fe274       O290   2.042       .  S
Fe274       O284   1.934       .  S
Fe275       O293   2.033       .  S
Fe275       O280   2.117       .  S
Fe275       O287   2.121       .  S
Fe275       O820   2.033       .  S
Fe275       O284   1.929       .  S
O276       Fe819   2.033       .  S
O276        C283   1.262       .  A
O277        C291   1.277       .  A
O278       Fe817   2.096       .  S
O278        C283   1.273       .  A
O279        C282   1.260       .  A
O280        C292   1.284       .  A
O281        C294   1.261       .  A
C282        O287   1.283       .  A
C282        C526   1.464   1_556  S
C283        C541   1.469       .  S
O285        C288   1.287       .  A
O286        C288   1.263       .  A
C288        C522   1.482       .  S
O289        C294   1.273       .  A
O290        C292   1.270       .  A
C291        O293   1.262       .  A
C291        C538   1.477       .  S
C292        C529   1.480       .  S
Fe295       O311   2.020       .  S
Fe295       O845   2.095       .  S
Fe295       O308   2.102       .  S
Fe295       O300   2.000       .  S
Fe295       O306   1.940       .  S
Fe296       O299   2.042       .  S
Fe296       O303   2.135       .  S
Fe296       O307   2.042       .  S
Fe296       O312   2.102       .  S
Fe296       O306   1.935       .  S
Fe297       O315   2.120       .  S
Fe297       O302   2.033       .  S
Fe297       O853   2.036       .  S
Fe297       O298   2.122       .  S
Fe297       O306   1.930       .  S
O298        C305   1.283       .  A
O299        C313   1.269       .  A
O300        C305   1.260       .  A
O301       Fe839   2.095   1_455  S
O301        C304   1.272       .  A
O302        C314   1.262       .  A
O303        C316   1.286       .  A
C304        O309   1.262       .  A
C304        C506   1.470       .  S
C305        C525   1.465   1_554  S
O307        C310   1.261       .  A
O308        C310   1.273       .  A
O309       Fe841   2.035   1_455  S
O311        C316   1.263       .  A
O312        C314   1.276       .  A
C313        O315   1.284       .  A
C313        C518   1.481       .  S
C314        C510   1.476       .  S
C316        C501   1.480       .  S
Fe317       O333   2.021       .  S
Fe317       O323   2.095       .  S
Fe317       O330   2.102       .  S
Fe317       O322   2.000       .  S
Fe317       O328   1.942       .  S
Fe318       O321   2.042       .  S
Fe318       O325   2.137       .  S
Fe318       O329   2.044       .  S
Fe318       O334   2.103       .  S
Fe318       O328   1.935       .  S
Fe319       O337   2.118       .  S
Fe319       O324   2.034       .  S
Fe319       O331   2.034       .  S
Fe319       O320   2.122       .  S
Fe319       O328   1.932       .  S
O320        C327   1.283       .  A
O321        C335   1.269       .  A
O322        C327   1.260       .  A
O323        C326   1.272       .  A
O324        C336   1.262       .  A
O325        C338   1.287       .  A
C326        O331   1.262       .  A
C326        C509   1.469       .  S
C327        C498   1.465   1_556  S
O329        C332   1.261       .  A
O330        C332   1.273       .  A
C332        C530   1.480       .  S
O333        C338   1.263       .  A
O334        C336   1.277       .  A
C335        O337   1.284       .  A
C335        C534   1.481       .  S
C336        C505   1.476       .  S
C338        C494   1.481       .  S
Fe339       O355   2.102       .  S
Fe339       O345   2.001       .  S
Fe339       O352   2.022       .  S
Fe339       O344   2.097       .  S
Fe339       O350   1.940       .  S
Fe340       O343   2.105       .  S
Fe340       O347   2.044       .  S
Fe340       O351   2.139       .  S
Fe340       O356   2.042       .  S
Fe340       O350   1.936       .  S
Fe341       O359   2.031       .  S
Fe341       O346   2.119       .  S
Fe341       O353   2.121       .  S
Fe341       O342   2.035       .  S
Fe341       O350   1.930       .  S
O342        C349   1.262       .  A
O343        C357   1.277       .  A
O344        C349   1.273       .  A
O345        C348   1.260       .  A
O346        C358   1.284       .  A
O347        C360   1.261       .  A
C348        O353   1.283       .  A
C348        C497   1.464   1_554  S
C349        C537   1.470       .  S
O351        C354   1.287       .  A
O352        C354   1.263       .  A
C354        C489   1.482       .  S
O355        C360   1.273       .  A
O356        C358   1.270       .  A
C357        O359   1.261       .  A
C357        C542   1.476       .  S
C358        C514   1.481       .  S
C360        C517   1.480       .  S
Fe361       O377   2.101       .  S
Fe361       O367   2.003       .  S
Fe361       O374   2.024       .  S
Fe361       O910   2.095       .  S
Fe361       O372   1.942       .  S
Fe362       O365   2.104       .  S
Fe362       O369   2.046       .  S
Fe362       O373   2.140       .  S
Fe362       O378   2.043       .  S
Fe362       O372   1.935       .  S
Fe363       O381   2.031       .  S
Fe363       O368   2.118       .  S
Fe363       O375   2.122       .  S
Fe363       O908   2.033       .  S
Fe363       O372   1.931       .  S
O364       Fe907   2.033   1_455  S
O364        C371   1.262       .  A
O365        C379   1.277       .  A
O366       Fe905   2.096   1_455  S
O366        C371   1.272       .  A
O367        C370   1.261       .  A
O368        C380   1.284       .  A
O369        C382   1.261       .  A
C370        O375   1.283       .  A
C370        C478   1.466       .  S
C371        C485   1.469       .  S
O373        C376   1.287       .  A
O374        C376   1.264       .  A
C376        C521   1.484       .  S
O377        C382   1.273       .  A
O378        C380   1.270       .  A
C379        O381   1.262       .  A
C379        C482   1.476       .  S
C380        C473   1.481       .  S
Fe383       O399   2.021       .  S
Fe383       O933   2.095   1_455  S
Fe383       O396   2.100       .  S
Fe383       O388   2.002       .  S
Fe383       O394   1.940       .  S
Fe384       O387   2.041       .  S
Fe384       O391   2.134       .  S
Fe384       O395   2.044       .  S
Fe384       O400   2.101       .  S
Fe384       O394   1.935       .  S
Fe385       O403   2.117       .  S
Fe385       O390   2.031       .  S
Fe385       O397   2.034       .  S
Fe385       O386   2.122       .  S
Fe385       O394   1.930       .  S
O386        C393   1.283       .  A
O387        C401   1.269       .  A
O388        C393   1.261       .  A
O389       Fe927   2.094       .  S
O389        C392   1.272       .  A
O390        C402   1.262       .  A
O391        C404   1.286       .  A
C392        O941   1.262       .  A
C392        C454   1.469       .  S
C393        C477   1.465       .  S
O395        C398   1.260       .  A
O396        C398   1.273       .  A
O397        C936   1.262   1_455  A
O399        C404   1.264       .  A
O400        C402   1.276       .  A
C401        O403   1.283       .  A
C401        C465   1.480       .  S
C402        C457   1.475       .  S
C404        C502   1.480       .  S
Fe405       O421   2.023       .  S
Fe405       O411   2.092       .  S
Fe405       O418   2.101       .  S
Fe405       O410   2.004       .  S
Fe405       O416   1.941       .  S
Fe406       O409   2.040       .  S
Fe406       O413   2.136       .  S
Fe406       O417   2.043       .  S
Fe406       O422   2.103       .  S
Fe406       O416   1.935       .  S
Fe407       O425   2.118       .  S
Fe407       O412   2.033       .  S
Fe407       O419   2.033       .  S
Fe407       O408   2.121       .  S
Fe407       O416   1.931       .  S
O408        C415   1.283       .  A
O409        C423   1.269       .  A
O410        C415   1.261       .  A
O411        C414   1.272       .  A
O412        C424   1.262       .  A
O413        C426   1.286       .  A
C414        O419   1.262       .  A
C414        C458   1.467       .  S
C415        C450   1.466       .  S
O417        C420   1.261       .  A
O418        C420   1.273       .  A
C420        C474   1.479       .  S
O421        C426   1.263       .  A
O422        C424   1.276       .  A
C423        O425   1.284       .  A
C423        C469   1.480       .  S
C424        C453   1.476       .  S
C426        C493   1.481       .  S
Fe427       O443   2.101       .  S
Fe427       O433   2.004       .  S
Fe427       O440   2.022       .  S
Fe427       O432   2.094       .  S
Fe427       O438   1.940       .  S
Fe428       O431   2.106       .  S
Fe428       O435   2.042       .  S
Fe428       O439   2.138       .  S
Fe428       O444   2.040       .  S
Fe428       O438   1.936       .  S
Fe429       O447   2.030       .  S
Fe429       O434   2.119       .  S
Fe429       O441   2.121       .  S
Fe429       O430   2.033       .  S
Fe429       O438   1.929       .  S
O430        C437   1.262       .  A
O431        C445   1.277       .  A
O432        C437   1.272       .  A
O433        C436   1.261       .  A
O434        C446   1.284       .  A
O435        C448   1.261       .  A
C436        O441   1.283       .  A
C436        C449   1.466       .  S
C437        C481   1.468       .  S
O439        C442   1.286       .  A
O440        C442   1.263       .  A
C442        C490   1.482       .  S
O443        C448   1.273       .  A
O444        C446   1.269       .  A
C445        O447   1.261       .  A
C445        C486   1.476       .  S
C446        C462   1.480       .  S
C448        C466   1.478       .  S
C449        C450   1.357       .  D
C449        H451   1.087       .  S
C450        H452   1.087       .  S
C453        C454   1.352       .  D
C453        H455   1.088       .  S
C454        H456   1.087       .  S
C457        C458   1.352       .  D
C457        H459   1.088       .  S
C458        H460   1.087       .  S
C461        C462   1.355       .  D
C461        H463   1.086       .  S
C462        H464   1.087       .  S
C465        C466   1.355       .  D
C465        H467   1.087       .  S
C466        H468   1.086       .  S
C469        C470   1.355       .  D
C469        H471   1.087   1_565  S
C470        H472   1.086       .  S
C473        C474   1.355       .  D
C473        H475   1.087       .  S
C474        H476   1.086       .  S
C477        C750   1.357   1_465  D
C477        H479   1.087       .  S
C478        C749   1.357       .  D
C478        H480   1.087       .  S
C481        C482   1.353       .  D
C481        H483   1.087       .  S
C482        H484   1.088       .  S
C485        C486   1.353       .  D
C485        H487   1.087       .  S
C486        H488   1.087       .  S
C489        C490   1.360       .  D
C489        H491   1.086       .  S
C490        H492   1.086       .  S
C493        C494   1.360       .  D
C493        H495   1.086       .  S
C494        H496   1.086       .  S
C497        C498   1.357   1_556  D
C497        H499   1.087       .  S
C498        H500   1.087       .  S
C501       C1046   1.359       .  D
C501        H503   1.086       .  S
C502       C1045   1.359   1_455  D
C502        H504   1.086       .  S
C505        C506   1.353   1_556  D
C505        H507   1.088       .  S
C506        H508   1.087       .  S
C509        C510   1.352   1_556  D
C509        H511   1.087       .  S
C510        H512   1.088       .  S
C513        C514   1.355       .  D
C513        H515   1.086       .  S
C514        H516   1.087       .  S
C517        C518   1.356       .  D
C517        H519   1.086       .  S
C518        H520   1.087       .  S
C521       C1066   1.361       .  D
C521        H523   1.086       .  S
C522       C1065   1.360   1_455  D
C522        H524   1.086       .  S
C525        C798   1.357   1_566  D
C525       H1071   1.087       .  S
C526        C797   1.357   1_554  D
C526        H528   1.087       .  S
H527       C1069   1.087       .  S
C529        C530   1.355       .  D
C529        H531   1.087       .  S
C530        H532   1.086       .  S
C533        C534   1.355       .  D
C534        H536   1.087   1_565  S
C537        C538   1.353   1_554  D
C537        H539   1.087       .  S
C538        H540   1.087       .  S
C541        C542   1.353   1_556  D
C541        H543   1.087       .  S
C542        H544   1.087       .  S
Fe545       O561   2.102       .  S
Fe545       O551   2.001       .  S
Fe545       O558   2.023       .  S
Fe545       O556   1.941       .  S
Fe546       O549   2.107       .  S
Fe546       O553   2.044       .  S
Fe546       O557   2.140       .  S
Fe546       O562   2.042       .  S
Fe546       O556   1.936       .  S
Fe547       O565   2.029       .  S
Fe547       O552   2.119       .  S
Fe547       O559   2.121       .  S
Fe547       O556   1.930       .  S
O548        C555   1.262   1_455  A
O549        C563   1.277       .  A
O550        C555   1.273       .  A
O551        C554   1.260       .  A
O552        C564   1.284       .  A
O553        C566   1.261       .  A
C554        O559   1.283       .  A
C554        C798   1.464   1_556  S
C555        C813   1.470       .  S
O557        C560   1.287       .  A
O558        C560   1.263       .  A
C560        C794   1.483       .  S
O561        C566   1.273       .  A
O562        C564   1.270       .  A
C563        O565   1.261       .  A
C563        C810   1.476       .  S
C564        C801   1.481       .  S
C566       C1077   1.480   1_545  S
Fe567       O583   2.022       .  S
Fe567       O580   2.103       .  S
Fe567       O572   2.000       .  S
Fe567       O578   1.941       .  S
Fe568       O571   2.040       .  S
Fe568       O575   2.137       .  S
Fe568       O579   2.042       .  S
Fe568       O584   2.103       .  S
Fe568       O578   1.935       .  S
Fe569       O587   2.119       .  S
Fe569       O574   2.034       .  S
Fe569       O570   2.121       .  S
Fe569       O578   1.931       .  S
O570        C577   1.283       .  A
O571        C585   1.269       .  A
O572        C577   1.260       .  A
O573        C576   1.272       .  A
O574        C586   1.262       .  A
O575        C588   1.286       .  A
C576        O581   1.262       .  A
C576        C778   1.469       .  S
C577        C797   1.464   1_654  S
O579        C582   1.261       .  A
O580        C582   1.273       .  A
C582       C1057   1.479       .  S
O583        C588   1.263       .  A
O584        C586   1.276       .  A
C585        O587   1.284       .  A
C585        C790   1.480       .  S
C586        C782   1.477       .  S
C588        C773   1.481       .  S
Fe589       O605   2.022       .  S
Fe589       O595   2.094       .  S
Fe589       O602   2.102       .  S
Fe589       O594   2.002       .  S
Fe589       O600   1.941       .  S
Fe590       O593   2.043       .  S
Fe590       O597   2.138       .  S
Fe590       O601   2.044       .  S
Fe590       O606   2.103       .  S
Fe590       O600   1.936       .  S
Fe591       O609   2.119       .  S
Fe591       O596   2.034       .  S
Fe591       O603   2.036       .  S
Fe591       O592   2.120       .  S
Fe591       O600   1.931       .  S
O592        C599   1.283       .  A
O593        C607   1.270       .  A
O594        C599   1.261       .  A
O595        C598   1.272       .  A
O596        C608   1.262       .  A
O597        C610   1.286       .  A
C598        O603   1.262       .  A
C598        C781   1.470       .  S
C599        C770   1.465   1_556  S
O601        C604   1.261       .  A
O602        C604   1.273       .  A
C604        C802   1.480       .  S
O605        C610   1.263       .  A
O606        C608   1.276       .  A
C607        O609   1.284       .  A
C607        C806   1.481       .  S
C608        C777   1.477       .  S
C610        C766   1.482       .  S
Fe611       O627   2.101       .  S
Fe611       O617   2.002       .  S
Fe611       O624   2.023       .  S
Fe611       O616   2.097       .  S
Fe611       O622   1.942       .  S
Fe612       O615   2.107       .  S
Fe612       O619   2.043       .  S
Fe612       O623   2.140       .  S
Fe612       O628   2.042       .  S
Fe612       O622   1.935       .  S
Fe613       O631   2.032       .  S
Fe613       O618   2.119       .  S
Fe613       O625   2.121       .  S
Fe613       O614   2.032       .  S
Fe613       O622   1.929       .  S
O614        C621   1.262       .  A
O615        C629   1.277       .  A
O616        C621   1.273       .  A
O617        C620   1.261       .  A
O618        C630   1.284       .  A
O619        C632   1.261       .  A
C620        O625   1.283       .  A
C620        C769   1.464   1_554  S
C621        C809   1.469       .  S
O623        C626   1.287       .  A
O624        C626   1.263       .  A
C626        C761   1.483       .  S
O627        C632   1.273       .  A
O628        C630   1.270       .  A
C629        O631   1.262       .  A
C629        C814   1.478       .  S
C630        C786   1.481       .  S
C632        C789   1.479       .  S
Fe633       O649   2.101       .  S
Fe633       O639   2.003       .  S
Fe633       O646   2.023       .  S
Fe633       O644   1.941       .  S
Fe634       O637   2.106       .  S
Fe634       O641   2.043       .  S
Fe634       O645   2.139       .  S
Fe634       O650   2.041       .  S
Fe634       O644   1.934       .  S
Fe635       O653   2.031       .  S
Fe635       O640   2.118       .  S
Fe635       O647   2.121       .  S
Fe635       O644   1.930       .  S
O636        C643   1.262       .  A
O637        C651   1.277       .  A
O638        C643   1.272       .  A
O639        C642   1.260       .  A
O640        C652   1.284       .  A
O641        C654   1.261       .  A
C642        O647   1.283       .  A
C642        C750   1.465       .  S
C643        C757   1.469       .  S
O645        C648   1.287       .  A
O646        C648   1.264       .  A
C648        C793   1.483       .  S
O649        C654   1.273       .  A
O650        C652   1.269       .  A
C651        O653   1.262       .  A
C651        C754   1.476       .  S
C652        C745   1.480       .  S
C654       C1014   1.479   1_545  S
Fe655       O671   2.022       .  S
Fe655       O668   2.101       .  S
Fe655       O660   2.002       .  S
Fe655       O666   1.941       .  S
Fe656       O659   2.041       .  S
Fe656       O663   2.135       .  S
Fe656       O667   2.043       .  S
Fe656       O672   2.103       .  S
Fe656       O666   1.934       .  S
Fe657       O675   2.118       .  S
Fe657       O662   2.034       .  S
Fe657       O669   2.034       .  S
Fe657       O658   2.123       .  S
Fe657       O666   1.930       .  S
O658        C665   1.283       .  A
O659        C673   1.269       .  A
O660        C665   1.261       .  A
O661        C664   1.272       .  A
O662        C674   1.262       .  A
O663        C676   1.286       .  A
C664        C726   1.468       .  S
C665        C749   1.466       .  S
O667        C670   1.261       .  A
O668        C670   1.273       .  A
C670       C1005   1.479       .  S
O671        C676   1.263       .  A
O672        C674   1.276       .  A
C673        O675   1.284       .  A
C673        C737   1.480       .  S
C674        C729   1.476       .  S
C676        C774   1.481       .  S
Fe677       O693   2.022       .  S
Fe677       O683   2.095       .  S
Fe677       O690   2.101       .  S
Fe677       O682   2.000       .  S
Fe677       O688   1.941       .  S
Fe678       O681   2.042       .  S
Fe678       O685   2.138       .  S
Fe678       O689   2.043       .  S
Fe678       O694   2.103       .  S
Fe678       O688   1.935       .  S
Fe679       O697   2.119       .  S
Fe679       O684   2.032       .  S
Fe679       O691   2.035       .  S
Fe679       O680   2.122       .  S
Fe679       O688   1.931       .  S
O680        C687   1.283       .  A
O681        C695   1.269       .  A
O682        C687   1.260       .  A
O683        C686   1.272       .  A
O684        C696   1.262       .  A
O685        C698   1.287       .  A
C686        O691   1.262       .  A
C686        C730   1.469       .  S
C687        C722   1.465       .  S
O689        C692   1.260       .  A
O690        C692   1.273       .  A
C692        C746   1.479       .  S
O693        C698   1.263       .  A
O694        C696   1.276       .  A
C695        O697   1.284       .  A
C695        C741   1.481       .  S
C696        C725   1.476       .  S
C698        C765   1.482       .  S
Fe699       O715   2.102       .  S
Fe699       O705   2.000       .  S
Fe699       O712   2.022       .  S
Fe699       O704   2.096       .  S
Fe699       O710   1.941       .  S
Fe700       O703   2.104       .  S
Fe700       O707   2.044       .  S
Fe700       O711   2.139       .  S
Fe700       O716   2.043       .  S
Fe700       O710   1.935       .  S
Fe701       O719   2.032       .  S
Fe701       O706   2.119       .  S
Fe701       O713   2.123       .  S
Fe701       O702   2.033       .  S
Fe701       O710   1.930       .  S
O702        C709   1.262       .  A
O703        C717   1.277       .  A
O704        C709   1.272       .  A
O705        C708   1.260       .  A
O706        C718   1.284       .  A
O707        C720   1.261       .  A
C708        O713   1.283       .  A
C708        C721   1.465       .  S
C709        C753   1.469       .  S
O711        C714   1.287       .  A
O712        C714   1.263       .  A
C714        C762   1.483       .  S
O715        C720   1.273       .  A
O716        C718   1.270       .  A
C717        O719   1.262       .  A
C717        C758   1.476       .  S
C718        C734   1.482       .  S
C720        C738   1.479       .  S
C721        C722   1.358       .  D
C721        H723   1.087       .  S
C722        H724   1.087       .  S
C725        C726   1.352       .  D
C725        H727   1.088       .  S
C726        H728   1.087       .  S
C729        C730   1.352       .  D
C729        H731   1.088       .  S
C730        H732   1.087       .  S
C733        C942   1.481   1_545  S
C733        C734   1.355       .  D
C733        H735   1.086       .  S
C734        H736   1.087       .  S
C737        C738   1.355       .  D
C737        H739   1.087       .  S
C738        H740   1.086       .  S
C741        C742   1.355       .  D
C741        H743   1.087       .  S
C742        C926   1.480       .  S
C742        H744   1.086       .  S
C745        C746   1.355       .  D
C745        H747   1.087       .  S
C746        H748   1.086       .  S
C749        H751   1.087       .  S
C750        H752   1.087       .  S
C753        C754   1.353       .  D
C753        H755   1.087       .  S
C754        H756   1.087       .  S
C757        C758   1.353       .  D
C757        H759   1.087       .  S
C758        H760   1.087       .  S
C761        C762   1.361       .  D
C761        H763   1.086       .  S
C762        H764   1.086       .  S
C765        C766   1.360       .  D
C765        H767   1.086       .  S
C766        H768   1.086       .  S
C769        C770   1.357   1_556  D
C769        H771   1.087       .  S
C770        H772   1.087       .  S
C773        H775   1.086       .  S
C774        H776   1.086       .  S
C777        C778   1.353   1_556  D
C777        H779   1.088       .  S
C778        H780   1.086       .  S
C781        C782   1.352   1_556  D
C781        H783   1.087       .  S
C782        H784   1.088       .  S
C785        C854   1.480   1_545  S
C785        C786   1.355       .  D
C785        H787   1.086       .  S
C786        H788   1.087       .  S
C789        C790   1.355       .  D
C789        H791   1.086       .  S
C790        H792   1.087       .  S
C793        H795   1.086       .  S
C794        H796   1.086       .  S
C798        H800   1.087       .  S
C801        C802   1.355       .  D
C801        H803   1.087       .  S
C802        H804   1.086       .  S
C805        C838   1.480       .  S
C805        C806   1.355       .  D
C805       H1079   1.086       .  S
C806        H808   1.087       .  S
H807       C1077   1.086       .  S
C809        C810   1.354   1_554  D
C809        H811   1.087       .  S
C810        H812   1.087       .  S
C813        C814   1.354   1_556  D
C813        H815   1.087       .  S
C814        H816   1.087       .  S
Fe817       O833   2.103       .  S
Fe817       O823   2.002       .  S
Fe817       O830   2.025       .  S
Fe817       O828   1.941       .  S
Fe818       O821   2.108       .  S
Fe818       O825   2.043       .  S
Fe818       O829   2.140       .  S
Fe818       O834   2.042       .  S
Fe818       O828   1.936       .  S
Fe819       O837   2.031       .  S
Fe819       O824   2.121       .  S
Fe819       O831   2.121       .  S
Fe819       O828   1.930       .  S
O820        C827   1.261   1_455  A
O821        C835   1.277       .  A
O822        C827   1.272       .  A
O823        C826   1.260       .  A
O824        C836   1.285       .  A
O825        C838   1.261       .  A
C826        O831   1.283       .  A
C826       C1070   1.465   1_556  S
C827       C1085   1.469       .  S
O829        C832   1.287       .  A
O830        C832   1.263       .  A
C832       C1066   1.484       .  S
O833        C838   1.274       .  A
O834        C836   1.270       .  A
C835        O837   1.261       .  A
C835       C1082   1.477       .  S
C836       C1073   1.481       .  S
Fe839       O855   2.020       .  S
Fe839       O852   2.103       .  S
Fe839       O844   2.002       .  S
Fe839       O850   1.941       .  S
Fe840       O843   2.043       .  S
Fe840       O847   2.136       .  S
Fe840       O851   2.044       .  S
Fe840       O856   2.101       .  S
Fe840       O850   1.936       .  S
Fe841       O859   2.120       .  S
Fe841       O846   2.034       .  S
Fe841       O842   2.123       .  S
Fe841       O850   1.930       .  S
O842        C849   1.283       .  A
O843        C857   1.270       .  A
O844        C849   1.261       .  A
O845        C848   1.272       .  A
O846        C858   1.262       .  A
O847        C860   1.286       .  A
C848        O853   1.262       .  A
C848       C1050   1.470       .  S
C849       C1069   1.466   1_654  S
O851        C854   1.261       .  A
O852        C854   1.273       .  A
O855        C860   1.263       .  A
O856        C858   1.276       .  A
C857        O859   1.284       .  A
C857       C1062   1.482       .  S
C858       C1054   1.475       .  S
C860       C1045   1.480       .  S
Fe861       O877   2.020       .  S
Fe861       O867   2.094       .  S
Fe861       O874   2.103       .  S
Fe861       O866   2.000       .  S
Fe861       O872   1.942       .  S
Fe862       O865   2.042       .  S
Fe862       O869   2.135       .  S
Fe862       O873   2.043       .  S
Fe862       O878   2.102       .  S
Fe862       O872   1.935       .  S
Fe863       O881   2.118       .  S
Fe863       O868   2.035       .  S
Fe863       O875   2.035       .  S
Fe863       O864   2.121       .  S
Fe863       O872   1.931       .  S
O864        C871   1.283       .  A
O865        C879   1.269       .  A
O866        C871   1.261       .  A
O867        C870   1.272       .  A
O868        C880   1.262       .  A
O869        C882   1.286       .  A
C870        O875   1.262       .  A
C870       C1053   1.469       .  S
C871       C1042   1.465   1_556  S
O873        C876   1.261       .  A
O874        C876   1.273       .  A
C876       C1074   1.481       .  S
O877        C882   1.263       .  A
O878        C880   1.276       .  A
C879        O881   1.284       .  A
C879       C1078   1.481       .  S
C880       C1049   1.477       .  S
C882       C1038   1.480       .  S
Fe883       O899   2.103       .  S
Fe883       O889   2.001       .  S
Fe883       O896   2.024       .  S
Fe883       O888   2.098       .  S
Fe883       O894   1.940       .  S
Fe884       O887   2.106       .  S
Fe884       O891   2.045       .  S
Fe884       O895   2.141       .  S
Fe884       O900   2.042       .  S
Fe884       O894   1.935       .  S
Fe885       O903   2.030       .  S
Fe885       O890   2.118       .  S
Fe885       O897   2.120       .  S
Fe885       O886   2.033       .  S
Fe885       O894   1.929       .  S
O886        C893   1.262       .  A
O887        C901   1.277       .  A
O888        C893   1.273       .  A
O889        C892   1.260       .  A
O890        C902   1.284       .  A
O891        C904   1.261       .  A
C892        O897   1.283       .  A
C892       C1041   1.464   1_554  S
C893       C1081   1.470       .  S
O895        C898   1.287       .  A
O896        C898   1.263       .  A
C898       C1033   1.484       .  S
O899        C904   1.274       .  A
O900        C902   1.270       .  A
C901        O903   1.261       .  A
C901       C1086   1.476       .  S
C902       C1058   1.480       .  S
C904       C1061   1.481       .  S
Fe905       O921   2.102       .  S
Fe905       O911   2.002       .  S
Fe905       O918   2.023       .  S
Fe905       O916   1.941       .  S
Fe906       O909   2.104       .  S
Fe906       O913   2.044       .  S
Fe906       O917   2.137       .  S
Fe906       O922   2.042       .  S
Fe906       O916   1.936       .  S
Fe907       O925   2.031       .  S
Fe907       O912   2.119       .  S
Fe907       O919   2.122       .  S
Fe907       O916   1.930       .  S
O908        C915   1.261       .  A
O909        C923   1.277       .  A
O910        C915   1.272       .  A
O911        C914   1.260       .  A
O912        C924   1.284       .  A
O913        C926   1.261       .  A
C914        O919   1.283       .  A
C914       C1022   1.466       .  S
C915       C1029   1.468       .  S
O917        C920   1.287       .  A
O918        C920   1.263       .  A
C920       C1065   1.482       .  S
O921        C926   1.273       .  A
O922        C924   1.270       .  A
C923        O925   1.262       .  A
C923       C1026   1.476       .  S
C924       C1017   1.481       .  S
Fe927       O943   2.022       .  S
Fe927       O940   2.103       .  S
Fe927       O932   2.002       .  S
Fe927       O938   1.941       .  S
Fe928       O931   2.042       .  S
Fe928       O935   2.134       .  S
Fe928       O939   2.045       .  S
Fe928       O944   2.102       .  S
Fe928       O938   1.936       .  S
Fe929       O947   2.117       .  S
Fe929       O934   2.034       .  S
Fe929       O941   2.035       .  S
Fe929       O930   2.121       .  S
Fe929       O938   1.932       .  S
O930        C937   1.283       .  A
O931        C945   1.269       .  A
O932        C937   1.261       .  A
O933        C936   1.272       .  A
O934        C946   1.262       .  A
O935        C948   1.286       .  A
C936        C998   1.469       .  S
C937       C1021   1.466       .  S
O939        C942   1.261       .  A
O940        C942   1.273       .  A
O943        C948   1.263       .  A
O944        C946   1.276       .  A
C945        O947   1.284       .  A
C945       C1009   1.480       .  S
C946       C1001   1.476       .  S
C948       C1046   1.480       .  S
Fe949       O965   2.022       .  S
Fe949       O955   2.093       .  S
Fe949       O962   2.103       .  S
Fe949       O954   2.002       .  S
Fe949       O960   1.941       .  S
Fe950       O953   2.040       .  S
Fe950       O957   2.135       .  S
Fe950       O961   2.043       .  S
Fe950       O966   2.102       .  S
Fe950       O960   1.936       .  S
Fe951       O969   2.119       .  S
Fe951       O956   2.033       .  S
Fe951       O963   2.035       .  S
Fe951       O952   2.121       .  S
Fe951       O960   1.930       .  S
O952        C959   1.283       .  A
O953        C967   1.269       .  A
O954        C959   1.261       .  A
O955        C958   1.272       .  A
O956        C968   1.262       .  A
O957        C970   1.286       .  A
C958        O963   1.262       .  A
C958       C1002   1.469       .  S
C959        C994   1.465       .  S
O961        C964   1.261       .  A
O962        C964   1.273       .  A
C964       C1018   1.480       .  S
O965        C970   1.263       .  A
O966        C968   1.276       .  A
C967        O969   1.284       .  A
C967       C1013   1.480       .  S
C968        C997   1.476       .  S
C970       C1037   1.480       .  S
Fe971       O987   2.101       .  S
Fe971       O977   2.004       .  S
Fe971       O984   2.024       .  S
Fe971       O976   2.096       .  S
Fe971       O982   1.941       .  S
Fe972       O975   2.106       .  S
Fe972       O979   2.043       .  S
Fe972       O983   2.139       .  S
Fe972       O988   2.041       .  S
Fe972       O982   1.936       .  S
Fe973       O991   2.030       .  S
Fe973       O978   2.119       .  S
Fe973       O985   2.120       .  S
Fe973       O974   2.033       .  S
Fe973       O982   1.931       .  S
O974        C981   1.262       .  A
O975        C989   1.277       .  A
O976        C981   1.273       .  A
O977        C980   1.261       .  A
O978        C990   1.284       .  A
O979        C992   1.261       .  A
C980        O985   1.282       .  A
C980        C993   1.465       .  S
C981       C1025   1.469       .  S
O983        C986   1.287       .  A
O984        C986   1.263       .  A
C986       C1034   1.484       .  S
O987        C992   1.273       .  A
O988        C990   1.269       .  A
C989        O991   1.261       .  A
C989       C1030   1.476       .  S
C990       C1006   1.481       .  S
C992       C1010   1.479       .  S
C993        C994   1.357       .  D
C993        H995   1.087       .  S
C994        H996   1.087       .  S
C997        C998   1.352       .  D
C997        H999   1.088       .  S
C998       H1000   1.087       .  S
C1001      C1002   1.352       .  D
C1001      H1003   1.088       .  S
C1002      H1004   1.087       .  S
C1005      C1006   1.355       .  D
C1005      H1007   1.086       .  S
C1006      H1008   1.087       .  S
C1009      C1010   1.355       .  D
C1009      H1011   1.087       .  S
C1010      H1012   1.086       .  S
C1013      C1014   1.355       .  D
C1013      H1015   1.087   1_565  S
C1014      H1016   1.086       .  S
C1017      C1018   1.355       .  D
C1017      H1019   1.087       .  S
C1018      H1020   1.086       .  S
C1021      H1023   1.087       .  S
C1022      H1024   1.087       .  S
C1025      C1026   1.353       .  D
C1025      H1027   1.087       .  S
C1026      H1028   1.088       .  S
C1029      C1030   1.353       .  D
C1029      H1031   1.087       .  S
C1030      H1032   1.087       .  S
C1033      C1034   1.361       .  D
C1033      H1035   1.086       .  S
C1034      H1036   1.086       .  S
C1037      C1038   1.359       .  D
C1037      H1039   1.086       .  S
C1038      H1040   1.086       .  S
C1041      C1042   1.357   1_556  D
C1041      H1043   1.087       .  S
C1042      H1044   1.087       .  S
C1045      H1047   1.086       .  S
C1046      H1048   1.086       .  S
C1049      C1050   1.352   1_556  D
C1049      H1051   1.088       .  S
C1050      H1052   1.087       .  S
C1053      C1054   1.352   1_556  D
C1053      H1055   1.087       .  S
C1054      H1056   1.088       .  S
C1057      C1058   1.355       .  D
C1057      H1059   1.086       .  S
C1058      H1060   1.087       .  S
C1061      C1062   1.356       .  D
C1061      H1063   1.086       .  S
C1062      H1064   1.087       .  S
C1065      H1067   1.086       .  S
C1066      H1068   1.086       .  S
C1070      H1072   1.087       .  S
C1073      C1074   1.356       .  D
C1073      H1075   1.087       .  S
C1074      H1076   1.086       .  S
C1077      C1078   1.355       .  D
C1078      H1080   1.087   1_565  S
C1081      C1082   1.354   1_554  D
C1081      H1083   1.087       .  S
C1082      H1084   1.087       .  S
C1085      C1086   1.353   1_556  D
C1085      H1087   1.087       .  S
C1086      H1088   1.087       .  S
