geometry optimzed in LAMMPS
_audit_creation_date              2020-12-01 
_audit_creation_method            'lammps2cif' 
_symmetry_space_group_name_H-M    'P1' 
_symmetry_Int_Tables_number       1 
_symmetry_cell_setting            triclinic 
loop_ 
_symmetry_equiv_pos_as_xyz 
  x,y,z 
_cell_length_a                    48.53947185 
_cell_length_b                    40.91203735922123 
_cell_length_c                    26.661213383259312 
_cell_angle_alpha                 90.23663662407957 
_cell_angle_beta                  110.75704871702128 
_cell_angle_gamma                 89.43613140948875 
loop_ 
_atom_site_label 
_atom_site_type_symbol 
_atom_site_fract_x 
_atom_site_fract_y 
_atom_site_fract_z 
_atom_site_charge 
O1          O  0.37764975  0.53362670  0.83970441    -0.85900
O2          O  0.31934486  0.54977986  0.80155744    -0.82900
C3          C  0.29560725  0.56401384  0.77470520     0.97600
O4          O  0.29382003  0.58075743  0.73356814    -0.83000
O5          O  0.33457641  0.63266884  0.75255526    -0.85600
C6          C  0.35879470  0.64698449  0.76135594     1.02100
O7          O  0.38106495  0.63071908  0.76185305    -0.78400
O8          O  0.39018714  0.58517917  0.84355633    -0.78600
C9          C  0.38650985  0.55953676  0.86667603     1.02000
O10         O  0.37113410  0.50874178  0.73312946    -0.85900
O11         O  0.31135817  0.52015093  0.70027655    -0.83000
C12         C  0.30355558  0.53254813  0.65393565     0.97600
O13         O  0.31207530  0.56054092  0.64733564    -0.83000
O14         O  0.34925807  0.61069515  0.66157510    -0.85600
C15         C  0.37204909  0.59763787  0.65673588     1.02100
O16         O  0.39042299  0.58179697  0.69496958    -0.78400
O17         O  0.40863166  0.53827623  0.77998242    -0.78600
C18         C  0.39850976  0.51311491  0.75211486     1.02000
Cr19       Cr  0.34556340  0.53089236  0.76704014     1.93700
Cr20       Cr  0.32457807  0.59452088  0.70277366     1.93200
Cr21       Cr  0.38999612  0.58304580  0.76888874     1.39100
O22         O  0.35305904  0.56964393  0.74602062    -1.23600
O23         O  0.38756219  0.54987654  0.18657936    -0.85900
O24         O  0.44418686  0.55440333  0.25138845    -0.82900
C25         C  0.46458453  0.57399728  0.27432111     0.97600
O26         O  0.46201744  0.59531735  0.30714327    -0.83000
O27         O  0.41945942  0.64578334  0.27787077    -0.85600
C28         C  0.39521240  0.66074138  0.26697263     1.02100
O29         O  0.37286798  0.64477048  0.26447776    -0.78400
O30         O  0.37308802  0.60174415  0.18220595    -0.78600
C31         C  0.38059905  0.57693724  0.16099117     1.02000
O32         O  0.37430498  0.52270292  0.27943782    -0.85900
O33         O  0.43311106  0.52913923  0.34192432    -0.83000
C34         C  0.44188885  0.54511206  0.38552005     0.97600
O35         O  0.43843576  0.57551172  0.38647936    -0.83000
O36         O  0.39723680  0.62257980  0.36036134    -0.85600
C37         C  0.37428038  0.60746228  0.35995204     1.02100
O38         O  0.35768041  0.59315797  0.31774740    -0.78400
O39         O  0.34456261  0.55578276  0.22269370    -0.78600
C40         C  0.34882121  0.52913578  0.24731390     1.02000
Cr41       Cr  0.40896770  0.54209596  0.26624062     1.93700
Cr42       Cr  0.42725259  0.60790800  0.32861089     1.93200
Cr43       Cr  0.36485186  0.59771230  0.24932582     1.39100
O44         O  0.40109434  0.58238611  0.28177485    -1.23600
O45         O  0.11647582  0.41288130  0.17418926    -0.85900
O46         O  0.12118758  0.36653796  0.25374919    -0.82900
C47         C  0.14352463  0.34937195  0.25685012     0.97600
O48         O  0.16838667  0.36293854  0.26903445    -0.83000
O49         O  0.21131496  0.41295701  0.29724991    -0.85600
C50         C  0.21297206  0.43005642  0.25891350     1.02100
O51         O  0.19061125  0.44535402  0.22841624    -0.78400
O52         O  0.13223711  0.46348620  0.18067055    -0.78600
C53         C  0.12212752  0.43822022  0.15267663     1.02000
O54         O  0.09658186  0.46063341  0.23431580    -0.85900
O55         O  0.11051058  0.41659258  0.31881435    -0.83000
C56         C  0.12738103  0.39983086  0.35749918     0.97600
O57         O  0.14969893  0.38506237  0.35419329    -0.83000
O58         O  0.18903922  0.43432070  0.37714371    -0.85600
C59         C  0.19861136  0.46218371  0.37236428     1.02100
O60         O  0.19310174  0.47465027  0.32656046    -0.78400
O61         O  0.13407508  0.48877083  0.28471473    -0.78600
C62         C  0.10663896  0.48533725  0.26350802     1.02000
Cr63       Cr  0.11389450  0.41498994  0.24689180     1.93700
Cr64       Cr  0.17760092  0.40065709  0.32017729     1.93200
Cr65       Cr  0.16151007  0.46516646  0.25624939     1.39100
O66         O  0.15134288  0.42678387  0.27440556    -1.23600
O67         O  0.13452556  0.39903686  0.83563761    -0.85900
O68         O  0.13033466  0.35520208  0.75314343    -0.82900
C69         C  0.10717064  0.33919825  0.74666211     0.97600
O70         O  0.08291378  0.35431886  0.73569565    -0.83000
O71         O  0.04166455  0.40704772  0.70878225    -0.85600
C72         C  0.04095174  0.42298742  0.74929660     1.02100
O73         O  0.06341760  0.43747102  0.77953734    -0.78400
O74         O  0.12040838  0.45046655  0.83254598    -0.78600
C75         C  0.12792208  0.42366816  0.85810876     1.02000
O76         O  0.15864849  0.44696083  0.78485392    -0.85900
O77         O  0.14474645  0.40636238  0.69538374    -0.83000
C78         C  0.12806141  0.39129510  0.65446670     0.97600
O79         O  0.10540005  0.37658816  0.65564525    -0.83000
O80         O  0.06796357  0.42738305  0.63341999    -0.85600
C81         C  0.05837923  0.45547993  0.63730930     1.02100
O82         O  0.06333229  0.46830594  0.68301760    -0.78400
O83         O  0.12356191  0.47809738  0.73298648    -0.78600
C84         C  0.15056680  0.47311373  0.75842193     1.02000
Cr85       Cr  0.13954169  0.40283784  0.76550882     1.93700
Cr86       Cr  0.07634529  0.39305263  0.68767399     1.93200
Cr87       Cr  0.09353318  0.45589657  0.75540861     1.39100
O88         O  0.10277771  0.41717015  0.73619963    -1.23600
O89         O  0.38063797  0.91173215  0.33718544    -0.85900
O90         O  0.37625468  0.86681603  0.25539994    -0.82900
C91         C  0.35408194  0.85094776  0.25433090     0.97600
O92         O  0.32993505  0.86588746  0.24511944    -0.83000
O93         O  0.28816772  0.91745985  0.22149860    -0.85600
C94         C  0.28800772  0.93704120  0.25848485     1.02100
O95         O  0.30998628  0.95455046  0.28225016    -0.78400
O96         O  0.36824456  0.96396495  0.33216627    -0.78600
C97         C  0.37553235  0.93759140  0.35883601     1.02000
O98         O  0.40501549  0.95702695  0.28462398    -0.85900
O99         O  0.38867832  0.91588433  0.19477899    -0.83000
C100        C  0.37124098  0.90033265  0.15504446     0.97600
O101        O  0.34767798  0.88772966  0.15685374    -0.83000
O102        O  0.30768455  0.93642173  0.13704232    -0.85600
C103        C  0.30175591  0.96613207  0.14014400     1.02100
O104        O  0.31119277  0.98125362  0.18435050    -0.78400
O105        O  0.37160343  0.98934176  0.23207746    -0.78600
C106        C  0.39818773  0.98372687  0.25984638     1.02000
Cr107      Cr  0.38485548  0.91404009  0.26608661     1.93700
Cr108      Cr  0.32059877  0.90374478  0.19431717     1.93200
Cr109      Cr  0.34088568  0.96915935  0.25592807     1.39100
O110        O  0.34824624  0.92911502  0.23815749    -1.23600
O111        O  0.36528091  0.89359770  0.67610112    -0.85900
O112        O  0.37388132  0.85275883  0.76320496    -0.82900
C113        C  0.39685761  0.83676741  0.76696577     0.97600
O114        O  0.42095920  0.85153966  0.77679881    -0.83000
O115        O  0.46058401  0.90446687  0.79352197    -0.85600
C116        C  0.45993034  0.91954758  0.75154201     1.02100
O117        O  0.43608270  0.93149736  0.72008762    -0.78400
O118        O  0.37729234  0.94494359  0.67462313    -0.78600
C119        C  0.36961938  0.91788535  0.65080243     1.02000
O120        O  0.34340690  0.94354242  0.72927840    -0.85900
O121        O  0.36075961  0.90490833  0.82074000    -0.83000
C122        C  0.37857215  0.89080556  0.86180437     0.97600
O123        O  0.40213362  0.87750906  0.86076642    -0.83000
O124        O  0.43810882  0.92903168  0.87193533    -0.85600
C125        C  0.44606531  0.95664564  0.86188381     1.02100
O126        O  0.43927341  0.96632913  0.81414825    -0.78400
O127        O  0.37937308  0.97582362  0.77345001    -0.78600
C128        C  0.35220583  0.97068354  0.75179764     1.02000
Cr129      Cr  0.36343569  0.89973050  0.74879111     1.93700
Cr130      Cr  0.42832073  0.89203952  0.82143071     1.93200
Cr131      Cr  0.40734109  0.95186030  0.74747038     1.39100
O132        O  0.40001363  0.91443209  0.77277785    -1.23600
O133        O  0.11135251  0.04931774  0.32356448    -0.85900
O134        O  0.05391645  0.06603270  0.26889219    -0.82900
C135        C  0.03188249  0.07983068  0.23479450     0.97600
O136        O  0.03451794  0.09452868  0.19499280    -0.83000
O137        O  0.07729575  0.14480671  0.22118632    -0.85600
C138        C  0.10223078  0.15838462  0.23510923     1.02100
O139        O  0.12491850  0.14114756  0.24104657    -0.78400
O140        O  0.12845914  0.09908222  0.32514842    -0.78600
C141        C  0.12134621  0.07553626  0.34848507     1.02000
O142        O  0.11368473  0.01760277  0.22704454    -0.85900
O143        O  0.05482472  0.03125890  0.17760675    -0.83000
C144        C  0.05006482  0.04117814  0.13057038     0.97600
O145        O  0.05981208  0.06832878  0.12239226    -0.83000
O146        O  0.09926791  0.11819562  0.14215962    -0.85600
C147        C  0.12270710  0.10353930  0.14370537     1.02100
O148        O  0.13794653  0.08752462  0.18480852    -0.78400
O149        O  0.15007505  0.04814927  0.27481401    -0.78600
C150        C  0.14095088  0.02163784  0.25039943     1.02000
Cr151      Cr  0.08449017  0.04386833  0.24767131     1.93700
Cr152      Cr  0.06972405  0.10483488  0.17471359     1.93200
Cr153      Cr  0.13251388  0.09307781  0.25440594     1.39100
O154        O  0.09525499  0.08069786  0.22556848    -1.23600
O155        O  0.14485197  0.04320668  0.67070864    -0.85900
O156        O  0.19754840  0.03614350  0.75043715    -0.82900
C157        C  0.20989913  0.06140994  0.74196348     0.97600
O158        O  0.20224145  0.08939629  0.75279717    -0.83000
O159        O  0.16841775  0.13751188  0.78147016    -0.85600
C160        C  0.14648459  0.14906841  0.74429539     1.02100
O161        O  0.12658559  0.13048653  0.71575743    -0.78400
O162        O  0.10521619  0.07230960  0.66589539    -0.78600
C163        C  0.12186804  0.05888814  0.64404508     1.02000
O164        O  0.11589752  0.01254496  0.73274277    -0.85900
O165        O  0.16917557  0.01512086  0.82181243    -0.83000
C166        C  0.19257786  0.02671119  0.85547394     0.97600
O167        O  0.20326166  0.05286504  0.84538467    -0.83000
O168        O  0.16546468  0.09617465  0.86312714    -0.85600
C169        C  0.13984954  0.10550031  0.85858866     1.02100
O170        O  0.11959326  0.10877132  0.81300384    -0.78400
O171        O  0.09609432  0.05218635  0.76330334    -0.78600
C172        C  0.09516104  0.02356404  0.74584913     1.02000
Cr173      Cr  0.15624028  0.03005066  0.74585757     1.93700
Cr174      Cr  0.18222705  0.09240254  0.80646687     1.93200
Cr175      Cr  0.11502986  0.08921356  0.74134602     1.39100
O176        O  0.15084519  0.07088827  0.76425669    -1.23600
C177        C  0.11533868  0.06223447  0.58648538    -0.05800
C178        C  0.09004552  0.04842060  0.54920285    -0.05700
C179        C  0.08601780  0.04870162  0.49462600    -0.23900
C180        C  0.10704051  0.06332074  0.47701004     0.18300
C181        C  0.13198057  0.07844440  0.51445132     0.15600
C182        C  0.13614057  0.07737426  0.56906432    -0.18900
C183        C  0.15251978  0.09395245  0.49670220    -0.20700
C184        C  0.14869444  0.09394258  0.44224971    -0.13300
C185        C  0.12469223  0.07776664  0.40526164     0.03400
C186        C  0.10378576  0.06273803  0.42274412    -0.25400
H187        H  0.07403939  0.03646424  0.56251838     0.08500
H188        H  0.06670423  0.03718657  0.46631779     0.12100
H189        H  0.15569009  0.08803559  0.59824159     0.12000
H190        H  0.17161550  0.10585368  0.52495444     0.11800
H191        H  0.16490821  0.10567844  0.42922543     0.12300
H192        H  0.08494166  0.05065842  0.39398849     0.14200
C193        C  0.13346722  0.11161971  0.90797547    -0.05800
C194        C  0.10599484  0.12422874  0.90549786    -0.05700
C195        C  0.09912810  0.12689915  0.95197235    -0.23900
C196        C  0.11948470  0.11664082  0.00147426     0.18300
C197        C  0.14741456  0.10461073  0.00457204     0.15600
C198        C  0.15433539  0.10257039  0.95800328    -0.18900
C199        C  0.16756516  0.09374834  0.05385646    -0.20700
C200        C  0.15979328  0.09390373  0.09950441    -0.13300
C201        C  0.13191426  0.10538433  0.09668276     0.03400
C202        C  0.11205311  0.11725038  0.04760557    -0.25400
H203        H  0.08960893  0.13142649  0.86752082     0.08500
H204        H  0.07760062  0.13621897  0.94897789     0.12100
H205        H  0.17561795  0.09265228  0.96055327     0.12000
H206        H  0.18909319  0.08442283  0.05683534     0.11800
H207        H  0.17545353  0.08470314  0.13684404     0.12300
H208        H  0.09035787  0.12595964  0.04478309     0.14200
C209        C  0.46461238  0.97722207  0.90621111    -0.05800
C210        C  0.47418990  0.00795484  0.89590362    -0.05700
C211        C  0.99310261  0.02660725  0.93776500    -0.23900
C212        C  0.00295767  0.01466101  0.99039812     0.18300
C213        C  0.49315816  0.98390728  0.00102238     0.15600
C214        C  0.47400872  0.96550945  0.95905801    -0.18900
C215        C  0.50283052  0.97189442  0.05349469    -0.20700
C216        C  0.02208451  0.99020807  0.09524348    -0.13300
C217        C  0.03166156  0.02106198  0.08530578     0.03400
C218        C  0.02214817  0.03306301  0.03257999    -0.25400
H219        H  0.46727489  0.01749041  0.85544389     0.08500
H220        H  0.00020299  0.05021469  0.92886062     0.12100
H221        H  0.46680178  0.94183613  0.96755713     0.12000
H222        H  0.49557050  0.94834282  0.06231178     0.11800
H223        H  0.02902553  0.98038421  0.13552484     0.12300
H224        H  0.02925106  0.05687031  0.02446668     0.14200
C225        C  0.33054933  0.99630759  0.75128562    -0.05800
C226        C  0.33654350  0.01873625  0.79372472    -0.05700
C227        C  0.31473414  0.04062778  0.79613581    -0.23900
C228        C  0.28670352  0.04055924  0.75586963     0.18300
C229        C  0.28114779  0.01940695  0.71130311     0.15600
C230        C  0.30308232  0.99742866  0.70934668    -0.18900
C231        C  0.25312239  0.01903930  0.67122548    -0.20700
C232        C  0.23007597  0.03698516  0.67791538    -0.13300
C233        C  0.23484667  0.05604114  0.72410558     0.03400
C234        C  0.26351658  0.05922871  0.76153291    -0.25400
H235        H  0.35767185  0.01834504  0.82624777     0.08500
H236        H  0.31943211  0.05671445  0.83047966     0.12100
H237        H  0.29846904  0.98045541  0.67608050     0.12000
H238        H  0.24852786  0.00312188  0.63668268     0.11800
H239        H  0.20793064  0.03374212  0.64933167     0.12300
H240        H  0.26706054  0.07313976  0.79796438     0.14200
C241        C  0.06814978  0.00435732  0.73585052    -0.05800
C242        C  0.04112118  0.01863377  0.70479119    -0.05700
C243        C  0.01477077  0.00218121  0.69548107    -0.23900
C244        C  0.01486074  0.97151159  0.71867071     0.18300
C245        C  0.04191281  0.95647685  0.74941094     0.15600
C246        C  0.06862920  0.97268662  0.75666229    -0.18900
C247        C  0.04151488  0.92644646  0.77460785    -0.20700
C248        C  0.01467868  0.91283449  0.77262527    -0.13300
C249        C  0.48776418  0.92823874  0.74360418     0.03400
C250        C  0.48816833  0.95673050  0.71447289    -0.25400
H251        H  0.04042996  0.04276621  0.68774176     0.08500
H252        H  0.99422761  0.01403406  0.67185794     0.12100
H253        H  0.08948303  0.96157504  0.78061418     0.12000
H254        H  0.06195240  0.91445943  0.79833510     0.11800
H255        H  0.01501890  0.89097083  0.79560640     0.12300
H256        H  0.46769263  0.96929266  0.69244646     0.14200
C257        C  0.28250661  0.98278816  0.09098493    -0.05800
C258        C  0.27975115  0.01698592  0.08863116    -0.05700
C259        C  0.26093708  0.03229035  0.04216668    -0.23900
C260        C  0.24430925  0.01356812  0.99767890     0.18300
C261        C  0.24654852  0.97915480  0.99992836     0.15600
C262        C  0.26581744  0.96403884  0.04627810    -0.18900
C263        C  0.22945055  0.96041866  0.95577733    -0.20700
C264        C  0.21064132  0.97573180  0.90924999    -0.13300
C265        C  0.20905720  0.00991588  0.90611989     0.03400
C266        C  0.22570044  0.02869054  0.95074931    -0.25400
H267        H  0.29225498  0.03190142  0.12259528     0.08500
H268        H  0.25933615  0.05871386  0.04105026     0.12100
H269        H  0.26744074  0.93760473  0.04775860     0.12000
H270        H  0.23087689  0.93398812  0.95703047     0.11800
H271        H  0.19820295  0.96093618  0.87507853     0.12300
H272        H  0.22440696  0.05514484  0.94864532     0.14200
C273        C  0.37227532  0.88991088  0.91194259    -0.05800
C274        C  0.34317379  0.88872666  0.91075371    -0.05700
C275        C  0.33737483  0.88892885  0.95850182    -0.23900
C276        C  0.36057257  0.89122589  0.00807025     0.18300
C277        C  0.38992282  0.89296650  0.00960110     0.15600
C278        C  0.39560638  0.89172276  0.96157757    -0.18900
C279        C  0.41300371  0.89664642  0.05903307    -0.20700
C280        C  0.40703158  0.89888792  0.10654182    -0.13300
C281        C  0.37797519  0.89672368  0.10546612     0.03400
C282        C  0.35485732  0.89257655  0.05602688    -0.25400
H283        H  0.32494215  0.88744408  0.87286456     0.08500
H284        H  0.31473568  0.88781697  0.95663397     0.12100
H285        H  0.41810830  0.89327650  0.96267880     0.12000
H286        H  0.43560846  0.89829568  0.06085813     0.11800
H287        H  0.42513147  0.90221588  0.14416191     0.12300
H288        H  0.33229179  0.89148644  0.05468686     0.14200
C289        C  0.36681803  0.91553025  0.59397806    -0.05800
C290        C  0.36150199  0.88563726  0.56618549    -0.05700
C291        C  0.36267412  0.88355368  0.51449588    -0.23900
C292        C  0.36942416  0.91126876  0.49025759     0.18300
C293        C  0.37417301  0.94145475  0.51780399     0.15600
C294        C  0.37255433  0.94340964  0.56886357    -0.18900
C295        C  0.38085329  0.96931887  0.49427468    -0.20700
C296        C  0.38239890  0.96752418  0.44328741    -0.13300
C297        C  0.37751655  0.93780833  0.41511202     0.03400
C298        C  0.37135592  0.90955249  0.43897994    -0.25400
H299        H  0.35719309  0.86377946  0.58486643     0.08500
H300        H  0.35880895  0.86022489  0.49390190     0.12100
H301        H  0.37668625  0.96669042  0.58968006     0.12000
H302        H  0.38461762  0.99258370  0.51510139     0.11800
H303        H  0.38704760  0.98958074  0.42549060     0.12300
H304        H  0.36708315  0.88667069  0.41701903     0.14200
C305        C  0.42177259  0.00791071  0.26700476    -0.05800
C306        C  0.44595741  0.00771336  0.31560078    -0.05700
C307        C  0.47099654  0.02597051  0.32161303    -0.23900
C308        C  0.47261703  0.04445942  0.27877480     0.18300
C309        C  0.44782047  0.04658743  0.23070416     0.15600
C310        C  0.42222095  0.02862232  0.22532049    -0.18900
C311        C  0.44988329  0.06491951  0.18783592    -0.20700
C312        C  0.47682607  0.07860742  0.19102184    -0.13300
C313        C  0.00213051  0.07444350  0.23724807     0.03400
C314        C  0.99932180  0.05882757  0.28201980    -0.25400
H315        H  0.44589480  0.99241965  0.34864613     0.08500
H316        H  0.48965479  0.02431362  0.35890930     0.12100
H317        H  0.40367606  0.02894806  0.18773997     0.12000
H318        H  0.43115404  0.06710081  0.15075525     0.11800
H319        H  0.47826723  0.09046030  0.15580286     0.12300
H320        H  0.01856636  0.05551280  0.31804638     0.14200
C321        C  0.16261991  0.99602972  0.24932522    -0.05800
C322        C  0.15788604  0.97656275  0.20351429    -0.05700
C323        C  0.18065925  0.95686451  0.19867427    -0.23900
C324        C  0.20846760  0.95610881  0.23979849     0.18300
C325        C  0.21253524  0.97352506  0.28779514     0.15600
C326        C  0.18967635  0.99334865  0.29218895    -0.18900
C327        C  0.24004162  0.97261406  0.32929385    -0.20700
C328        C  0.26407071  0.95743335  0.32140922    -0.13300
C329        C  0.26112287  0.94267474  0.27198960     0.03400
C330        C  0.23279099  0.94039845  0.23236568    -0.25400
H331        H  0.13716472  0.97808642  0.17010990     0.08500
H332        H  0.17692846  0.94343218  0.16177479     0.12100
H333        H  0.19340606  0.00791811  0.32803769     0.12000
H334        H  0.24342775  0.98534403  0.36671189     0.11800
H335        H  0.28551906  0.95921721  0.35284268     0.12300
H336        H  0.23017825  0.92921580  0.19403777     0.14200
C337        C  0.10886185  0.30279504  0.74563681    -0.05800
C338        C  0.08338074  0.28347361  0.72882790    -0.05700
C339        C  0.08536997  0.24956968  0.72188576    -0.23900
C340        C  0.11287543  0.23432637  0.73148820     0.18300
C341        C  0.13857189  0.25351490  0.74868424     0.15600
C342        C  0.13641089  0.28734983  0.75573025    -0.18900
C343        C  0.16615688  0.23857188  0.75895634    -0.20700
C344        C  0.16846929  0.20471696  0.75434435    -0.13300
C345        C  0.14323905  0.18510269  0.73830950     0.03400
C346        C  0.11531852  0.20021887  0.72563982    -0.25400
H347        H  0.06185834  0.29465344  0.71991567     0.08500
H348        H  0.06537867  0.23530303  0.70874129     0.12100
H349        H  0.15633424  0.30175789  0.76830956     0.12000
H350        H  0.18606973  0.25297979  0.77203332     0.11800
H351        H  0.19016076  0.19368081  0.76483512     0.12300
H352        H  0.09572780  0.18529050  0.71434673     0.14200
C353        C  0.10542745  0.19464353  0.24121972    -0.05800
C354        C  0.08259039  0.21453210  0.24545603    -0.05700
C355        C  0.08557598  0.24864727  0.24932280    -0.23900
C356        C  0.11132832  0.26367532  0.24832381     0.18300
C357        C  0.13448557  0.24405239  0.24422194     0.15600
C358        C  0.13146426  0.20978315  0.24097317    -0.18900
C359        C  0.16024203  0.25906715  0.24324681    -0.20700
C360        C  0.16312483  0.29319598  0.24658986    -0.13300
C361        C  0.14022643  0.31312148  0.25048257     0.03400
C362        C  0.11430059  0.29795929  0.25130225    -0.25400
H363        H  0.06238774  0.20369799  0.24579262     0.08500
H364        H  0.06760894  0.26331735  0.25266489     0.12100
H365        H  0.14926914  0.19493984  0.23731559     0.12000
H366        H  0.17825160  0.24438231  0.24011750     0.11800
H367        H  0.18333462  0.30400420  0.24624157     0.12300
H368        H  0.09650867  0.31279562  0.25502581     0.14200
C369        C  0.12855832  0.42119502  0.91405254    -0.05800
C370        C  0.13896771  0.39255887  0.94411259    -0.05700
C371        C  0.13819450  0.38944073  0.99582029    -0.23900
C372        C  0.12703510  0.41491740  0.01860607     0.18300
C373        C  0.11641607  0.44380189  0.98876515     0.15600
C374        C  0.11710175  0.44668168  0.93670965    -0.18900
C375        C  0.10577864  0.46956492  0.01189553    -0.20700
C376        C  0.10676858  0.46726441  0.06481063    -0.13300
C377        C  0.11754097  0.43881090  0.09493713     0.03400
C378        C  0.12704030  0.41237897  0.07120614    -0.25400
H379        H  0.14763670  0.37242070  0.92755657     0.08500
H380        H  0.14649543  0.36715442  0.01811216     0.12100
H381        H  0.10864444  0.46875852  0.91385482     0.12000
H382        H  0.09747921  0.49185323  0.98960587     0.11800
H383        H  0.09947191  0.48791858  0.08257403     0.12300
H384        H  0.13584847  0.39057378  0.09462497     0.14200
C385        C  0.13382008  0.39163006  0.60389274    -0.05800
C386        C  0.16146387  0.40038573  0.60270034    -0.05700
C387        C  0.16570228  0.40319586  0.55374554    -0.23900
C388        C  0.14215125  0.39801389  0.50543940     0.18300
C389        C  0.11418348  0.38956694  0.50629332     0.15600
C390        C  0.11037709  0.38586097  0.55547617    -0.18900
C391        C  0.09032633  0.38565144  0.45792584    -0.20700
C392        C  0.09419918  0.38996661  0.40890831    -0.13300
C393        C  0.12209432  0.39738616  0.40798306     0.03400
C394        C  0.14598048  0.40141898  0.45622657    -0.25400
H395        H  0.17969013  0.40526007  0.63953881     0.08500
H396        H  0.18720869  0.40996157  0.55359846     0.12100
H397        H  0.08877230  0.37975546  0.55590598     0.12000
H398        H  0.06870788  0.37941181  0.45805578     0.11800
H399        H  0.07570098  0.38668635  0.37184102     0.12300
H400        H  0.16749593  0.40751656  0.45532082     0.14200
C401        C  0.39237595  0.69685854  0.26197384    -0.05800
C402        C  0.41657396  0.71664313  0.26641487    -0.05700
C403        C  0.41380775  0.75076715  0.26650486    -0.23900
C404        C  0.38686222  0.76562326  0.26258329     0.18300
C405        C  0.36229637  0.74603399  0.25737324     0.15600
C406        C  0.36514844  0.71191587  0.25668417    -0.18900
C407        C  0.33535298  0.76088137  0.25345895    -0.20700
C408        C  0.33266035  0.79499705  0.25409727    -0.13300
C409        C  0.35690363  0.81480031  0.25890498     0.03400
C410        C  0.38405215  0.79974130  0.26359573    -0.25400
H411        H  0.43771616  0.70575868  0.27070307     0.08500
H412        H  0.43284518  0.76554552  0.27032144     0.12100
H413        H  0.34619442  0.69708822  0.25333385     0.12000
H414        H  0.31629426  0.74610027  0.24948281     0.11800
H415        H  0.31153292  0.80586552  0.24995276     0.12300
H416        H  0.40301296  0.81457002  0.26700158     0.14200
C417        C  0.45850083  0.52891417  0.43686862    -0.05800
C418        C  0.45680257  0.54092450  0.48527297    -0.05700
C419        C  0.47613623  0.52941537  0.53473025    -0.23900
C420        C  0.49801093  0.50628194  0.53662413     0.18300
C421        C  0.99960673  0.49402825  0.48788270     0.15600
C422        C  0.47957097  0.50491900  0.43859638    -0.18900
C423        C  0.02173534  0.47158181  0.48922745    -0.20700
C424        C  0.04164827  0.46065511  0.53813649    -0.13300
C425        C  0.03987721  0.47176840  0.58696535     0.03400
C426        C  0.01817829  0.49508579  0.58594908    -0.25400
H427        H  0.44085668  0.55973260  0.48479206     0.08500
H428        H  0.47442928  0.53916586  0.57137534     0.12100
H429        H  0.48145369  0.49612050  0.40151188     0.12000
H430        H  0.02351826  0.46222819  0.45240391     0.11800
H431        H  0.05816875  0.44276311  0.53768250     0.12300
H432        H  0.01640903  0.50361026  0.62324741     0.14200
C433        C  0.32365527  0.50650850  0.23652630    -0.05800
C434        C  0.29859839  0.51139927  0.19005607    -0.05700
C435        C  0.27292117  0.49376150  0.18145547    -0.23900
C436        C  0.27154128  0.47101928  0.21945215     0.18300
C437        C  0.29698109  0.46441717  0.26493980     0.15600
C438        C  0.32309591  0.48199003  0.27300210    -0.18900
C439        C  0.29525342  0.44171967  0.30295971    -0.20700
C440        C  0.26815934  0.42784993  0.29817137    -0.13300
C441        C  0.24228620  0.43626783  0.25511750     0.03400
C442        C  0.24456666  0.45656514  0.21441381    -0.25400
H443        H  0.29852766  0.52969797  0.16075283     0.08500
H444        H  0.25374795  0.49893770  0.14614362     0.12100
H445        H  0.34224625  0.47792924  0.30886921     0.12000
H446        H  0.31447785  0.43604876  0.33789051     0.11800
H447        H  0.26716390  0.41230212  0.33025264     0.12300
H448        H  0.22491136  0.46324764  0.18092296     0.14200
C449        C  0.49205932  0.56950864  0.26272908    -0.05800
C450        C  0.48950342  0.56184072  0.20982076    -0.05700
C451        C  0.51264258  0.54670435  0.19887190    -0.23900
C452        C  0.03877272  0.53849756  0.24053105     0.18300
C453        C  0.04271377  0.54853665  0.29348962     0.15600
C454        C  0.01930316  0.56425385  0.30420501    -0.18900
C455        C  0.06926092  0.54065112  0.33506588    -0.20700
C456        C  0.09086438  0.52160762  0.32467874    -0.13300
C457        C  0.08611351  0.50968216  0.27278051     0.03400
C458        C  0.06032360  0.51897261  0.23063446    -0.25400
H459        H  0.46869869  0.56550156  0.17717387     0.08500
H460        H  0.50940418  0.53965749  0.15796301     0.12100
H461        H  0.02138293  0.56959856  0.34524372     0.12000
H462        H  0.07288400  0.54821659  0.37588588     0.11800
H463        H  0.11062955  0.51473752  0.35773361     0.12300
H464        H  0.05663755  0.51010819  0.19040400     0.14200
C465        C  0.39498827  0.80056698  0.76443890    -0.05800
C466        C  0.42026040  0.78075410  0.77595491    -0.05700
C467        C  0.41825694  0.74672992  0.77919612    -0.23900
C468        C  0.39097671  0.73199840  0.77125955     0.18300
C469        C  0.36541772  0.75163092  0.75906609     0.15600
C470        C  0.36754868  0.78560291  0.75531265    -0.18900
C471        C  0.33813803  0.73700795  0.75122264    -0.20700
C472        C  0.33606068  0.70304526  0.75442774    -0.13300
C473        C  0.36123116  0.68311450  0.76559856     0.03400
C474        C  0.38875156  0.69796162  0.77473818    -0.25400
H475        H  0.44163689  0.79158254  0.78360012     0.08500
H476        H  0.43809046  0.73196654  0.78851012     0.12100
H477        H  0.34777948  0.80044821  0.74649336     0.12000
H478        H  0.31832816  0.75181568  0.74190969     0.11800
H479        H  0.31462512  0.69233027  0.74662135     0.12300
H480        H  0.40841805  0.68298481  0.78318639     0.14200
C481        C  0.28356190  0.51480768  0.60691676    -0.05800
C482        C  0.27212165  0.48420589  0.61269355    -0.05700
C483        C  0.25270638  0.46800680  0.56804237    -0.23900
C484        C  0.24443670  0.48215234  0.51692152     0.18300
C485        C  0.25576953  0.51295680  0.51081346     0.15600
C486        C  0.27519893  0.52901114  0.55566972    -0.18900
C487        C  0.24758669  0.52720555  0.45988677    -0.20700
C488        C  0.22860324  0.51088918  0.41513720    -0.13300
C489        C  0.21741305  0.48003318  0.42047711     0.03400
C490        C  0.22526145  0.46592482  0.47175523    -0.25400
H491        H  0.27808353  0.47283492  0.65175498     0.08500
H492        H  0.24418266  0.44442302  0.57348072     0.12100
H493        H  0.28376992  0.55264637  0.55053173     0.12000
H494        H  0.25606529  0.55084974  0.45458416     0.11800
H495        H  0.22294586  0.52233326  0.37618157     0.12300
H496        H  0.21682385  0.44214943  0.47649670     0.14200
C497        C  0.36793310  0.60616428  0.41019447    -0.05800
C498        C  0.33972606  0.59883705  0.41019060    -0.05700
C499        C  0.33467584  0.59654564  0.45864486    -0.23900
C500        C  0.35793835  0.60075156  0.50779865     0.18300
C501        C  0.38654082  0.60711229  0.50807174     0.12400
C502        C  0.39119981  0.61031800  0.45944483    -0.18900
C503        C  0.41015505  0.60975098  0.55699712    -0.20700
C504        C  0.40546637  0.60636813  0.60543997    -0.13300
C505        C  0.37701636  0.60115853  0.60567945     0.03400
C506        C  0.35326165  0.59837960  0.55671397    -0.25400
H507        H  0.32158725  0.59507249  0.37277001     0.08500
H508        H  0.31268427  0.59118415  0.45771372     0.12100
H509        H  0.41322666  0.61520403  0.46004626     0.12000
H510        H  0.43227116  0.61420089  0.55777664     0.11800
H511        H  0.42399261  0.60832894  0.64281211     0.12300
H512        H  0.33133751  0.59363923  0.55679814     0.14200
C513        C  0.39147385  0.55940013  0.92466985    -0.05800
C514        C  0.40052828  0.53047525  0.95441721    -0.05700
C515        C  0.40124227  0.52855769  0.00718860    -0.23900
C516        C  0.39217150  0.55529675  0.03075103     0.18300
C517        C  0.38344360  0.58471321  0.00149710     0.15600
C518        C  0.38361978  0.58676780  0.94892641    -0.18900
C519        C  0.37384961  0.61120874  0.02477132    -0.20700
C520        C  0.37265187  0.60852393  0.07626168    -0.13300
C521        C  0.38110529  0.57932454  0.10569225     0.03400
C522        C  0.39111477  0.55285425  0.08262051    -0.25400
H523        H  0.40654569  0.50908265  0.93638572     0.08500
H524        H  0.40806608  0.50583638  0.02901114     0.12100
H525        H  0.37611029  0.60899861  0.92591826     0.12000
H526        H  0.36701426  0.63393557  0.00297010     0.11800
H527        H  0.36510338  0.62941601  0.09306672     0.12300
H528        H  0.39796493  0.53025997  0.10485053     0.14200
C529        C  0.01334094  0.42852370  0.75975447    -0.05800
C530        C  0.01533048  0.43693166  0.81212770    -0.05700
C531        C  0.49196860  0.45258003  0.82143535    -0.23900
C532        C  0.46618910  0.46026321  0.77849384     0.18300
C533        C  0.46283234  0.44955999  0.72611889     0.15600
C534        C  0.48644581  0.43342598  0.71706477    -0.18900
C535        C  0.43666305  0.45715177  0.68344721    -0.20700
C536        C  0.41480204  0.47649482  0.69227801    -0.13300
C537        C  0.41904895  0.48885568  0.74366510     0.03400
C538        C  0.44443952  0.48000034  0.78678118    -0.25400
H539        H  0.03580473  0.43341448  0.84560337     0.08500
H540        H  0.99477495  0.46033839  0.86186057     0.12100
H541        H  0.48481761  0.42746122  0.67645245     0.12000
H542        H  0.43354257  0.44908375  0.64305332     0.11800
H543        H  0.39527204  0.48315860  0.65858256     0.12300
H544        H  0.44762274  0.48932189  0.82658776     0.14200
C545        C  0.17277348  0.49752135  0.75760572    -0.05800
C546        C  0.16844623  0.51620081  0.71131665    -0.05700
C547        C  0.19065227  0.53666100  0.70791246    -0.23900
C548        C  0.21749972  0.53908752  0.75100747     0.18300
C549        C  0.22144307  0.52185565  0.79896065     0.15600
C550        C  0.19912949  0.50105265  0.80187067    -0.18900
C551        C  0.24822879  0.52442629  0.84212243    -0.20700
C552        C  0.27175770  0.54137319  0.83611736    -0.13300
C553        C  0.26886867  0.55634351  0.78703187     0.03400
C554        C  0.24108947  0.55664564  0.74564686    -0.25400
H555        H  0.14832793  0.51389535  0.67681501     0.08500
H556        H  0.18718012  0.54975730  0.67089620     0.12100
H557        H  0.20254254  0.48699096  0.83800164     0.12000
H558        H  0.25153566  0.51180514  0.87949375     0.11800
H559        H  0.29284859  0.54089344  0.86874911     0.12300
H560        H  0.23855283  0.56786885  0.70747734     0.14200
O561        O  0.87771841  0.53363753  0.83969105    -0.85900
O562        O  0.81941196  0.54978805  0.80164422    -0.82900
C563        C  0.79566040  0.56399756  0.77479820     0.97600
O564        O  0.79385299  0.58074082  0.73364855    -0.83000
O565        O  0.83459462  0.63266939  0.75252659    -0.85600
C566        C  0.85880638  0.64698809  0.76127197     1.02100
O567        O  0.88107464  0.63072068  0.76176182    -0.78400
O568        O  0.89023987  0.58519282  0.84350532    -0.78600
C569        C  0.88657449  0.55955299  0.86664519     1.02000
O570        O  0.87114545  0.50872995  0.73311864    -0.85900
O571        O  0.81136903  0.52013778  0.70036027    -0.83000
C572        C  0.80354780  0.53252725  0.65401305     0.97600
O573        O  0.81206885  0.56051253  0.64738138    -0.83000
O574        O  0.84922792  0.61067307  0.66150254    -0.85600
C575        C  0.87201643  0.59762324  0.65663901     1.02100
O576        O  0.89040127  0.58178653  0.69486587    -0.78400
O577        O  0.90865283  0.53827761  0.77989632    -0.78600
C578        C  0.89852208  0.51310091  0.75207539     1.02000
Cr579      Cr  0.84560126  0.53089149  0.76707241     1.93700
Cr580      Cr  0.82458296  0.59450601  0.70278055     1.93200
Cr581      Cr  0.89001302  0.58304702  0.76881196     1.39100
O582        O  0.85307949  0.56963944  0.74600813    -1.23600
O583        O  0.88753493  0.54985633  0.18648391    -0.85900
O584        O  0.94416326  0.55433307  0.25130582    -0.82900
C585        C  0.96456648  0.57393210  0.27418600     0.97600
O586        O  0.96201103  0.59527758  0.30698375    -0.83000
O587        O  0.91946726  0.64576104  0.27775080    -0.85600
C588        C  0.89522531  0.66072734  0.26686471     1.02100
O589        O  0.87288018  0.64476501  0.26438836    -0.78400
O590        O  0.87308014  0.60173162  0.18211560    -0.78600
C591        C  0.88058145  0.57691969  0.16089888     1.02000
O592        O  0.87425946  0.52270780  0.27935281    -0.85900
O593        O  0.93305963  0.52910685  0.34182849    -0.83000
C594        C  0.94186103  0.54508750  0.38541343     0.97600
O595        O  0.93844638  0.57549297  0.38636430    -0.83000
O596        O  0.89725585  0.62256643  0.36027953    -0.85600
C597        C  0.87428280  0.60747666  0.35986173     1.02100
O598        O  0.85767603  0.59317552  0.31765927    -0.78400
O599        O  0.84453610  0.55579468  0.22260107    -0.78600
C600        C  0.84877740  0.52915560  0.24723991     1.02000
Cr601      Cr  0.90893214  0.54206793  0.26614804     1.93700
Cr602      Cr  0.92725859  0.60788478  0.32849260     1.93200
Cr603      Cr  0.86484623  0.59771265  0.24923537     1.39100
O604        O  0.90108345  0.58236877  0.28167568    -1.23600
O605        O  0.61645233  0.41288072  0.17430756    -0.85900
O606        O  0.62117510  0.36651489  0.25384939    -0.82900
C607        C  0.64351589  0.34935531  0.25694959     0.97600
O608        O  0.66837436  0.36293119  0.26912609    -0.83000
O609        O  0.71129183  0.41297322  0.29733555    -0.85600
C610        C  0.71293546  0.43008806  0.25900306     1.02100
O611        O  0.69056603  0.44537952  0.22852349    -0.78400
O612        O  0.63219018  0.46349456  0.18081130    -0.78600
C613        C  0.62210463  0.43822580  0.15280812     1.02000
O614        O  0.59654651  0.46060815  0.23447275    -0.85900
O615        O  0.61049615  0.41654519  0.31895179    -0.83000
C616        C  0.62737762  0.39978316  0.35762663     0.97600
O617        O  0.64969702  0.38502817  0.35430210    -0.83000
O618        O  0.68901876  0.43430001  0.37725875    -0.85600
C619        C  0.69857629  0.46217162  0.37248747     1.02100
O620        O  0.69306306  0.47464513  0.32668864    -0.78400
O621        O  0.63403874  0.48874184  0.28488487    -0.78600
C622        C  0.60660384  0.48530389  0.26368608     1.02000
Cr623      Cr  0.61387130  0.41496696  0.24701714     1.93700
Cr624      Cr  0.67758642  0.40064600  0.32027826     1.93200
Cr625      Cr  0.66146919  0.46516565  0.25638478     1.39100
O626        O  0.65131673  0.42677142  0.27452618    -1.23600
O627        O  0.63452324  0.39899461  0.83577234    -0.85900
O628        O  0.63030945  0.35514161  0.75328093    -0.82900
C629        C  0.60713047  0.33915260  0.74674325     0.97600
O630        O  0.58287971  0.35429057  0.73575358    -0.83000
O631        O  0.54167337  0.40706638  0.70882403    -0.85600
C632        C  0.54095639  0.42300693  0.74933414     1.02100
O633        O  0.56342702  0.43747031  0.77960563    -0.78400
O634        O  0.62042726  0.45043304  0.83266459    -0.78600
C635        C  0.62793689  0.42363837  0.85824110     1.02000
O636        O  0.65868903  0.44687972  0.78499222    -0.85900
O637        O  0.64477673  0.40626918  0.69552925    -0.83000
C638        C  0.62808896  0.39120721  0.65460788     0.97600
O639        O  0.60541263  0.37652807  0.65576967    -0.83000
O640        O  0.56801689  0.42737076  0.63351278    -0.85600
C641        C  0.55842972  0.45546771  0.63739662     1.02100
O642        O  0.56338362  0.46829305  0.68310656    -0.78400
O643        O  0.62362357  0.47803923  0.73312028    -0.78600
C644        C  0.65062591  0.47303419  0.75855647     1.02000
Cr645      Cr  0.63955133  0.40277044  0.76564565     1.93700
Cr646      Cr  0.57635659  0.39303339  0.68775691     1.93200
Cr647      Cr  0.59356881  0.45586817  0.75551225     1.39100
O648        O  0.60279680  0.41713037  0.73631173    -1.23600
O649        O  0.88058719  0.91176188  0.33725691    -0.85900
O650        O  0.87628747  0.86681849  0.25552208    -0.82900
C651        C  0.85411590  0.85093359  0.25440931     0.97600
O652        O  0.82996305  0.86586049  0.24518425    -0.83000
O653        O  0.78815843  0.91737911  0.22150053    -0.85600
C654        C  0.78796323  0.93699219  0.25842349     1.02100
O655        O  0.80990671  0.95456473  0.28213023    -0.78400
O656        O  0.86815719  0.96398695  0.33216147    -0.78600
C657        C  0.87544514  0.93762338  0.35886135     1.02000
O658        O  0.90499103  0.95705618  0.28473579    -0.85900
O659        O  0.88871138  0.91588101  0.19490181    -0.83000
C660        C  0.87128814  0.90032006  0.15515876     0.97600
O661        O  0.84772004  0.88771195  0.15693791    -0.83000
O662        O  0.80766603  0.93634966  0.13703090    -0.85600
C663        C  0.80176332  0.96607344  0.14007474     1.02100
O664        O  0.81119700  0.98122160  0.18425520    -0.78400
O665        O  0.87158401  0.98932864  0.23208713    -0.78600
C666        C  0.89816435  0.98373776  0.25990272     1.02000
Cr667      Cr  0.88485003  0.91405390  0.26618826     1.93700
Cr668      Cr  0.82060924  0.90370042  0.19435248     1.93200
Cr669      Cr  0.84084310  0.96915442  0.25588377     1.39100
O670        O  0.84823197  0.92910282  0.23818609    -1.23600
O671        O  0.86525726  0.89363315  0.67617634    -0.85900
O672        O  0.87390430  0.85276113  0.76325847    -0.82900
C673        C  0.89686939  0.83677573  0.76692785     0.97600
O674        O  0.92096865  0.85154971  0.77674452    -0.83000
O675        O  0.96059729  0.90447582  0.79347353    -0.85600
C676        C  0.95993296  0.91959893  0.75152353     1.02100
O677        O  0.93608045  0.93156331  0.72010972    -0.78400
O678        O  0.87727780  0.94498010  0.67470635    -0.78600
C679        C  0.86957613  0.91792924  0.65087179     1.02000
O680        O  0.84341991  0.94354326  0.72943772    -0.85900
O681        O  0.86082812  0.90489203  0.82088561    -0.83000
C682        C  0.87865110  0.89077549  0.86192394     0.97600
O683        O  0.90220380  0.87748019  0.86083551    -0.83000
O684        O  0.93818727  0.92899370  0.87198641    -0.85600
C685        C  0.94612097  0.95662230  0.86194715     1.02100
O686        O  0.93928575  0.96634022  0.81422102    -0.78400
O687        O  0.87938345  0.97583023  0.77358516    -0.78600
C688        C  0.85221640  0.97068748  0.75194237     1.02000
Cr689      Cr  0.86345851  0.89973696  0.74890141     1.93700
Cr690      Cr  0.92835954  0.89202828  0.82143459     1.93200
Cr691      Cr  0.90734314  0.95188634  0.74754987     1.39100
O692        O  0.90003625  0.91444042  0.77284074    -1.23600
O693        O  0.61137712  0.04925365  0.32350097    -0.85900
O694        O  0.55394559  0.06602428  0.26888993    -0.82900
C695        C  0.53190762  0.07982323  0.23480384     0.97600
O696        O  0.53453149  0.09450857  0.19498227    -0.83000
O697        O  0.57731201  0.14477147  0.22117035    -0.85600
C698        C  0.60224759  0.15834819  0.23510901     1.02100
O699        O  0.62493531  0.14111004  0.24104312    -0.78400
O700        O  0.62845125  0.09902824  0.32510205    -0.78600
C701        C  0.62133536  0.07547970  0.34842849     1.02000
O702        O  0.61365787  0.01756011  0.22694606    -0.85900
O703        O  0.55479305  0.03125524  0.17756721    -0.83000
C704        C  0.55002553  0.04117446  0.13052803     0.97600
O705        O  0.55980531  0.06830570  0.12234966    -0.83000
O706        O  0.59927515  0.11816294  0.14213455    -0.85600
C707        C  0.62271332  0.10350747  0.14367358     1.02100
O708        O  0.63796102  0.08749677  0.18477489    -0.78400
O709        O  0.65006541  0.04808592  0.27473056    -0.78600
C710        C  0.64092618  0.02157788  0.25030708     1.02000
Cr711      Cr  0.58448854  0.04383601  0.24761929     1.93700
Cr712      Cr  0.56973194  0.10480682  0.17468457     1.93200
Cr713      Cr  0.63252126  0.09303216  0.25436879     1.39100
O714        O  0.59526158  0.08066076  0.22552078    -1.23600
O715        O  0.64479550  0.04311922  0.67060306    -0.85900
O716        O  0.69751270  0.03611592  0.75030942    -0.82900
C717        C  0.70986350  0.06139302  0.74187156     0.97600
O718        O  0.70219752  0.08937324  0.75271954    -0.83000
O719        O  0.66834722  0.13745551  0.78142225    -0.85600
C720        C  0.64641606  0.14901406  0.74424585     1.02100
O721        O  0.62652698  0.13042926  0.71568624    -0.78400
O722        O  0.60517612  0.07225381  0.66580009    -0.78600
C723        C  0.62181030  0.05880084  0.64394625     1.02000
O724        O  0.61589155  0.01245070  0.73270287    -0.85900
O725        O  0.66918196  0.01505694  0.82173550    -0.83000
C726        C  0.69258751  0.02665335  0.85537700     0.97600
O727        O  0.70324624  0.05282061  0.84528001    -0.83000
O728        O  0.66541025  0.09607857  0.86304667    -0.85600
C729        C  0.63978927  0.10538692  0.85850222     1.02100
O730        O  0.61953926  0.10866997  0.81291423    -0.78400
O731        O  0.59605076  0.05209978  0.76317774    -0.78600
C732        C  0.59514083  0.02347010  0.74576540     1.02000
Cr733      Cr  0.65621671  0.02998528  0.74577140     1.93700
Cr734      Cr  0.68217854  0.09234688  0.80638604     1.93200
Cr735      Cr  0.61498441  0.08913798  0.74125125     1.39100
O736        O  0.65080560  0.07082175  0.76416217    -1.23600
C737        C  0.61525968  0.06211726  0.58638365    -0.05800
C738        C  0.59017630  0.04789039  0.54916471    -0.05700
C739        C  0.58619424  0.04810916  0.49460747    -0.23900
C740        C  0.60705947  0.06305168  0.47695000     0.18300
C741        C  0.63177771  0.07857287  0.51431934     0.15600
C742        C  0.63589061  0.07758875  0.56891793    -0.18900
C743        C  0.65215783  0.09437650  0.49652119    -0.20700
C744        C  0.64839973  0.09427490  0.44209788    -0.13300
C745        C  0.62462672  0.07772498  0.40518680     0.03400
C746        C  0.60387135  0.06239846  0.42271770    -0.25400
H747        H  0.57431276  0.03566701  0.56252572     0.08500
H748        H  0.56705111  0.03628291  0.46635413     0.12100
H749        H  0.65528608  0.08854984  0.59805457     0.12000
H750        H  0.67108051  0.10658116  0.52471516     0.11800
H751        H  0.66449073  0.10625468  0.42904370     0.12300
H752        H  0.58519170  0.05003445  0.39402698     0.14200
C753        C  0.63338870  0.11147676  0.90787806    -0.05800
C754        C  0.60584932  0.12390167  0.90535707    -0.05700
C755        C  0.59897465  0.12654365  0.95182326    -0.23900
C756        C  0.61939428  0.11644713  0.00136613     0.18300
C757        C  0.64738619  0.10459733  0.00450867     0.15600
C758        C  0.65430970  0.10257808  0.95793989    -0.18900
C759        C  0.66760129  0.09389538  0.05384440    -0.20700
C760        C  0.65983818  0.09403763  0.09950362    -0.13300
C761        C  0.63190303  0.10534865  0.09663567     0.03400
C762        C  0.61197062  0.11704709  0.04750228    -0.25400
H763        H  0.58941787  0.13097395  0.86735353     0.08500
H764        H  0.57739767  0.13571917  0.94879554     0.12100
H765        H  0.67564464  0.09280216  0.96052452     0.12000
H766        H  0.68917760  0.08470887  0.05685977     0.11800
H767        H  0.67555199  0.08496868  0.13689175     0.12300
H768        H  0.59023054  0.12561723  0.04464683     0.14200
C769        C  0.96468420  0.97718472  0.90627652    -0.05800
C770        C  0.97414594  0.00798506  0.89599454    -0.05700
C771        C  0.49316216  0.02656352  0.93767723    -0.23900
C772        C  0.50291735  0.01467036  0.99033934     0.18300
C773        C  0.99332887  0.98382030  0.00105440     0.15600
C774        C  0.97419729  0.96540578  0.95909224    -0.18900
C775        C  0.00310097  0.97175667  0.05350059    -0.20700
C776        C  0.52185535  0.99031332  0.09523315    -0.13300
C777        C  0.53157003  0.02108770  0.08526901     0.03400
C778        C  0.52214415  0.03304395  0.03252057    -0.25400
H779        H  0.96714190  0.01757082  0.85555831     0.08500
H780        H  0.50036072  0.05011245  0.92875116     0.12100
H781        H  0.96708591  0.94167611  0.96756889     0.12000
H782        H  0.99594389  0.94814402  0.06229649     0.11800
H783        H  0.52872013  0.98052715  0.13553168     0.12300
H784        H  0.52935233  0.05679045  0.02438479     0.14200
C785        C  0.83055334  0.99631384  0.75139366    -0.05800
C786        C  0.83653551  0.01877417  0.79378776    -0.05700
C787        C  0.81471544  0.04067019  0.79614542    -0.23900
C788        C  0.78668724  0.04057467  0.75586900     0.18300
C789        C  0.78114613  0.01938978  0.71134637     0.15600
C790        C  0.80308918  0.99740787  0.70944544    -0.18900
C791        C  0.75312690  0.01899565  0.67125389    -0.20700
C792        C  0.73007083  0.03695017  0.67788731    -0.13300
C793        C  0.73482292  0.05603630  0.72404043     0.03400
C794        C  0.76348834  0.05924972  0.76147924    -0.25400
H795        H  0.85766220  0.01840617  0.82631535     0.08500
H796        H  0.81940367  0.05678310  0.83045564     0.12100
H797        H  0.79848488  0.98041189  0.67621077     0.12000
H798        H  0.74854438  0.00305224  0.63674435     0.11800
H799        H  0.70793033  0.03368582  0.64929702     0.12300
H800        H  0.76701933  0.07318416  0.79788390     0.14200
C801        C  0.56813811  0.00425184  0.73576368    -0.05800
C802        C  0.54110976  0.01850689  0.70465324    -0.05700
C803        C  0.51476350  0.00205016  0.69535284    -0.23900
C804        C  0.51485796  0.97140020  0.71860433     0.18300
C805        C  0.54191056  0.95638487  0.74939246     0.15600
C806        C  0.56862384  0.97259647  0.75663230    -0.18900
C807        C  0.54151478  0.92637676  0.77465250    -0.20700
C808        C  0.51467872  0.91277398  0.77268914    -0.13300
C809        C  0.98776377  0.92831434  0.74358659     0.03400
C810        C  0.98816894  0.95683626  0.71452219    -0.25400
H811        H  0.54041538  0.04262735  0.68756130     0.08500
H812        H  0.49421936  0.01388741  0.67169315     0.12100
H813        H  0.58947838  0.96150256  0.78062365     0.12000
H814        H  0.56195285  0.91440457  0.79841590     0.11800
H815        H  0.51501821  0.89093219  0.79571901     0.12300
H816        H  0.96769379  0.96941122  0.69253531     0.14200
C817        C  0.78255112  0.98272284  0.09087613    -0.05800
C818        C  0.77985338  0.01692472  0.08846966    -0.05700
C819        C  0.76106286  0.03223001  0.04198617    -0.23900
C820        C  0.74439841  0.01350613  0.99753104     0.18300
C821        C  0.74658965  0.97909043  0.99982069     0.15600
C822        C  0.76583942  0.96397126  0.04618949    -0.18900
C823        C  0.72945443  0.96035619  0.95569855    -0.20700
C824        C  0.71064422  0.97567200  0.90917219    -0.13300
C825        C  0.70909680  0.00985672  0.90601077     0.03400
C826        C  0.72579036  0.02862997  0.95060274    -0.25400
H827        H  0.79238049  0.03184287  0.12241237     0.08500
H828        H  0.75950216  0.05865571  0.04083558     0.12100
H829        H  0.76742294  0.93753537  0.04770817     0.12000
H830        H  0.73084496  0.93392423  0.95697953     0.11800
H831        H  0.69816872  0.96087540  0.87503019     0.12300
H832        H  0.72452775  0.05508475  0.94847928     0.14200
C833        C  0.87236346  0.88986342  0.91207680    -0.05800
C834        C  0.84325752  0.88875007  0.91088060    -0.05700
C835        C  0.83745139  0.88897555  0.95861964    -0.23900
C836        C  0.86064748  0.89122410  0.00819530     0.18300
C837        C  0.89000524  0.89288547  0.00974555     0.15600
C838        C  0.89569542  0.89161726  0.96172351    -0.18900
C839        C  0.91308511  0.89651822  0.05919516    -0.20700
C840        C  0.90710378  0.89879138  0.10669635    -0.13300
C841        C  0.87803803  0.89670268  0.10559483     0.03400
C842        C  0.85492206  0.89260427  0.05614022    -0.25400
H843        H  0.82502439  0.88751397  0.87298765     0.08500
H844        H  0.81480736  0.88792429  0.95673848     0.12100
H845        H  0.91820217  0.89311635  0.96283568     0.12000
H846        H  0.93569677  0.89810626  0.06104000     0.11800
H847        H  0.92520285  0.90207905  0.14433008     0.12300
H848        H  0.83235043  0.89157268  0.05478030     0.14200
C849        C  0.86672183  0.91558677  0.59401844    -0.05800
C850        C  0.86140988  0.88569141  0.56623218    -0.05700
C851        C  0.86256538  0.88360830  0.51453105    -0.23900
C852        C  0.86929546  0.91132621  0.49027293     0.18300
C853        C  0.87402330  0.94151889  0.51779938     0.15600
C854        C  0.87241708  0.94347426  0.56887068    -0.18900
C855        C  0.88068336  0.96938538  0.49424758    -0.20700
C856        C  0.88224261  0.96758253  0.44326925    -0.13300
C857        C  0.87739242  0.93785678  0.41512147     0.03400
C858        C  0.87123829  0.90960263  0.43900266    -0.25400
H859        H  0.85712710  0.86382845  0.58493354     0.08500
H860        H  0.85871269  0.86027524  0.49395049     0.12100
H861        H  0.87653882  0.96675808  0.58967807     0.12000
H862        H  0.88442995  0.99265606  0.51505603     0.11800
H863        H  0.88688348  0.98963909  0.42546226     0.12300
H864        H  0.86698822  0.88671309  0.41706341     0.14200
C865        C  0.92174037  0.00793032  0.26702831    -0.05800
C866        C  0.94590126  0.00780672  0.31565888    -0.05700
C867        C  0.97093185  0.02607946  0.32165533    -0.23900
C868        C  0.97256945  0.04450560  0.27876543     0.18300
C869        C  0.94779419  0.04655762  0.23065050     0.15600
C870        C  0.92220285  0.02858070  0.22528209    -0.18900
C871        C  0.94987108  0.06482661  0.18773169    -0.20700
C872        C  0.97680955  0.07852830  0.19092346    -0.13300
C873        C  0.50216341  0.07444792  0.23729377     0.03400
C874        C  0.49937139  0.05877121  0.28202899    -0.25400
H875        H  0.94582652  0.99256030  0.34874769     0.08500
H876        H  0.98957237  0.02448209  0.35898602     0.12100
H877        H  0.90367665  0.02884881  0.18767356     0.12000
H878        H  0.93115798  0.06694788  0.15061509     0.11800
H879        H  0.97826385  0.09032996  0.15567470     0.12300
H880        H  0.51862848  0.05539900  0.31801609     0.14200
C881        C  0.66257923  0.99594879  0.24923839    -0.05800
C882        C  0.65784777  0.97649637  0.20341218    -0.05700
C883        C  0.68061624  0.95678677  0.19857886    -0.23900
C884        C  0.70841706  0.95600727  0.23972361     0.18300
C885        C  0.71247574  0.97339859  0.28773955     0.15600
C886        C  0.68962085  0.99323110  0.29212863    -0.18900
C887        C  0.73997444  0.97246458  0.32925788    -0.20700
C888        C  0.76400967  0.95730157  0.32136845    -0.13300
C889        C  0.76107319  0.94257907  0.27192887     0.03400
C890        C  0.73274541  0.94030849  0.23228992    -0.25400
H891        H  0.63713544  0.97804410  0.16999045     0.08500
H892        H  0.67689103  0.94337106  0.16166604     0.12100
H893        H  0.69334606  0.00778558  0.32799112     0.12000
H894        H  0.74335258  0.98517259  0.36669147     0.11800
H895        H  0.78545523  0.95907685  0.35281257     0.12300
H896        H  0.73014231  0.92915138  0.19394797     0.14200
C897        C  0.60880421  0.30274713  0.74567328    -0.05800
C898        C  0.58331625  0.28343615  0.72878263    -0.05700
C899        C  0.58529981  0.24953327  0.72180384    -0.23900
C900        C  0.61280626  0.23428071  0.73144672     0.18300
C901        C  0.63850725  0.25346085  0.74871296     0.15600
C902        C  0.63635198  0.28729225  0.75579934    -0.18900
C903        C  0.66609276  0.23851394  0.75901595    -0.20700
C904        C  0.66840183  0.20466183  0.75437173    -0.13300
C905        C  0.64316887  0.18505135  0.73827952     0.03400
C906        C  0.61524680  0.20017290  0.72557231    -0.25400
H907        H  0.56179430  0.29462352  0.71983718     0.08500
H908        H  0.56530393  0.23527500  0.70860053     0.12100
H909        H  0.65628104  0.30169102  0.76843689     0.12000
H910        H  0.68600870  0.25291630  0.77214295     0.11800
H911        H  0.69009388  0.19362368  0.76488747     0.12300
H912        H  0.59565259  0.18524858  0.71422959     0.14200
C913        C  0.60544008  0.19460873  0.24124243    -0.05800
C914        C  0.58257079  0.21449532  0.24535427    -0.05700
C915        C  0.58554453  0.24861236  0.24921273    -0.23900
C916        C  0.61131867  0.26364633  0.24833249     0.18300
C917        C  0.63450944  0.24402608  0.24436348     0.15600
C918        C  0.63149904  0.20975440  0.24112165    -0.18900
C919        C  0.66028752  0.25904609  0.24350629    -0.20700
C920        C  0.66315799  0.29317665  0.24683010    -0.13300
C921        C  0.64022720  0.31310111  0.25059016     0.03400
C922        C  0.61427995  0.29793315  0.25129692    -0.25400
H923        H  0.56234924  0.20365867  0.24559060     0.08500
H924        H  0.56755067  0.26327930  0.25245140     0.12100
H925        H  0.64933009  0.19491430  0.23756313     0.12000
H926        H  0.67832359  0.24436381  0.24048200     0.11800
H927        H  0.68338554  0.30398688  0.24657558     0.12300
H928        H  0.59646117  0.31276703  0.25491757     0.14200
C929        C  0.62859184  0.42118522  0.91420314    -0.05800
C930        C  0.63902416  0.39256420  0.94429318    -0.05700
C931        C  0.63826102  0.38945889  0.99601105    -0.23900
C932        C  0.62708589  0.41493208  0.01877792     0.18300
C933        C  0.61645292  0.44380604  0.98891591     0.15600
C934        C  0.61713212  0.44667481  0.93685178    -0.18900
C935        C  0.60579997  0.46956601  0.01202825    -0.20700
C936        C  0.60677544  0.46726764  0.06493661    -0.13300
C937        C  0.61755043  0.43881962  0.09507797     0.03400
C938        C  0.62707994  0.41239650  0.07137320    -0.25400
H939        H  0.64770093  0.37242615  0.92775058     0.08500
H940        H  0.64657575  0.36718190  0.01832087     0.12100
H941        H  0.60866054  0.46874173  0.91397860     0.12000
H942        H  0.59749233  0.49184778  0.98972517     0.11800
H943        H  0.59945992  0.48791746  0.08267995     0.12300
H944        H  0.63589428  0.39059745  0.09480438     0.14200
C945        C  0.63385403  0.39152045  0.60403931    -0.05800
C946        C  0.66150108  0.40025757  0.60284289    -0.05700
C947        C  0.66573605  0.40306517  0.55388346    -0.23900
C948        C  0.64217787  0.39790186  0.50557859     0.18300
C949        C  0.61420998  0.38946364  0.50643959     0.15600
C950        C  0.61040811  0.38575553  0.55562460    -0.18900
C951        C  0.59034544  0.38556765  0.45807735    -0.20700
C952        C  0.59420883  0.38990168  0.40905601    -0.13300
C953        C  0.62210220  0.39731804  0.40811989     0.03400
C954        C  0.64599790  0.40132367  0.45635997    -0.25400
H955        H  0.67973050  0.40512491  0.63968011     0.08500
H956        H  0.68724355  0.40982150  0.55373148     0.12100
H957        H  0.58880153  0.37966052  0.55605620     0.12000
H958        H  0.56872725  0.37933356  0.45821453     0.11800
H959        H  0.57570392  0.38663976  0.37199294     0.12300
H960        H  0.66751271  0.40741702  0.45544738     0.14200
C961        C  0.89239425  0.69684496  0.26186403    -0.05800
C962        C  0.91659319  0.71662876  0.26630663    -0.05700
C963        C  0.91383111  0.75075374  0.26642149    -0.23900
C964        C  0.88688967  0.76561058  0.26252794     0.18300
C965        C  0.86232248  0.74602065  0.25730596     0.15600
C966        C  0.86516921  0.71190373  0.25658434    -0.18900
C967        C  0.83538323  0.76086489  0.25342206    -0.20700
C968        C  0.83269617  0.79497875  0.25411050    -0.13300
C969        C  0.85694027  0.81478460  0.25893539     0.03400
C970        C  0.88408463  0.79972895  0.26358649    -0.25400
H971        H  0.93773337  0.70574302  0.27058375     0.08500
H972        H  0.93286952  0.76553176  0.27024408     0.12100
H973        H  0.84621350  0.69707741  0.25322774     0.12000
H974        H  0.81632379  0.74608273  0.24943625     0.11800
H975        H  0.81157149  0.80584464  0.24999261     0.12300
H976        H  0.90304465  0.81456072  0.26699945     0.14200
C977        C  0.95845956  0.52888765  0.43675782    -0.05800
C978        C  0.95672605  0.54087207  0.48514920    -0.05700
C979        C  0.97605153  0.52936437  0.53461309    -0.23900
C980        C  0.99795282  0.50626259  0.53652258     0.18300
C981        C  0.49962872  0.49401797  0.48797512     0.15600
C982        C  0.97955656  0.50492471  0.43849829    -0.18900
C983        C  0.52173019  0.47153727  0.48930463    -0.20700
C984        C  0.54165225  0.46060924  0.53820681    -0.13300
C985        C  0.53991860  0.47175374  0.58704808     0.03400
C986        C  0.51824505  0.49510291  0.58604455    -0.25400
H987        H  0.94075862  0.55965746  0.48465257     0.08500
H988        H  0.97431771  0.53909209  0.57125138     0.12100
H989        H  0.98146561  0.49615095  0.40142079     0.12000
H990        H  0.52348552  0.46215883  0.45247424     0.11800
H991        H  0.55815034  0.44269199  0.53773752     0.12300
H992        H  0.51650235  0.50365293  0.62334992     0.14200
C993        C  0.82359399  0.50655708  0.23649551    -0.05800
C994        C  0.79851238  0.51148860  0.19008389    -0.05700
C995        C  0.77282984  0.49386958  0.18152398    -0.23900
C996        C  0.77146964  0.47110309  0.21950195     0.18300
C997        C  0.79692866  0.46446569  0.26493391     0.15600
C998        C  0.82304811  0.48202177  0.27295610    -0.18900
C999        C  0.79521871  0.44174517  0.30293757    -0.20700
C1000       C  0.76812775  0.42787893  0.29818468    -0.13300
C1001       C  0.74224048  0.43632101  0.25518028     0.03400
C1002       C  0.74449906  0.45665210  0.21449678    -0.25400
H1003       H  0.79842789  0.52980232  0.16079386     0.08500
H1004       H  0.75364022  0.49907459  0.14625629     0.12100
H1005       H  0.84221681  0.47792973  0.30877919     0.12000
H1006       H  0.81445732  0.43604879  0.33782752     0.11800
H1007       H  0.76714861  0.41230757  0.33025162     0.12300
H1008       H  0.72483259  0.46335669  0.18104573     0.14200
C1009       C  0.99202533  0.56942582  0.26253206    -0.05800
C1010       C  0.98942554  0.56164370  0.20964051    -0.05700
C1011       C  0.01255968  0.54650443  0.19868314    -0.23900
C1012       C  0.53880827  0.53857683  0.24074692     0.18300
C1013       C  0.54270399  0.54849650  0.29374217     0.15600
C1014       C  0.51929562  0.56421977  0.30444637    -0.18900
C1015       C  0.56919748  0.54048501  0.33535409    -0.20700
C1016       C  0.59079264  0.52143825  0.32495322    -0.13300
C1017       C  0.58608543  0.50963604  0.27300203     0.03400
C1018       C  0.56035089  0.51904649  0.23083226    -0.25400
H1019       H  0.96859342  0.56521845  0.17702493     0.08500
H1020       H  0.00928622  0.53936627  0.15779924     0.12100
H1021       H  0.52133519  0.56947217  0.34549433     0.12000
H1022       H  0.57278222  0.54795513  0.37620364     0.11800
H1023       H  0.61051510  0.51447133  0.35802460     0.12300
H1024       H  0.55670085  0.51027377  0.19056481     0.14200
C1025       C  0.89499433  0.80057630  0.76431904    -0.05800
C1026       C  0.92026992  0.78076460  0.77588012    -0.05700
C1027       C  0.91826471  0.74673985  0.77910731    -0.23900
C1028       C  0.89097895  0.73200596  0.77111209     0.18300
C1029       C  0.86541382  0.75163555  0.75884264     0.15600
C1030       C  0.86754643  0.78560875  0.75509657    -0.18900
C1031       C  0.83812859  0.73700957  0.75094033    -0.20700
C1032       C  0.83605520  0.70304859  0.75418867    -0.13300
C1033       C  0.86123415  0.68312115  0.76545358     0.03400
C1034       C  0.88875662  0.69797035  0.77462421    -0.25400
H1035       H  0.94165186  0.79159513  0.78359197     0.08500
H1036       H  0.93810244  0.73197882  0.78847404     0.12100
H1037       H  0.84777371  0.80045331  0.74622824     0.12000
H1038       H  0.81831324  0.75181394  0.74156275     0.11800
H1039       H  0.81461710  0.69233139  0.74634595     0.12300
H1040       H  0.90842887  0.68299572  0.78313855     0.14200
C1041       C  0.78353270  0.51479133  0.60701942    -0.05800
C1042       C  0.77208830  0.48419508  0.61281063    -0.05700
C1043       C  0.75266162  0.46799973  0.56816716    -0.23900
C1044       C  0.74438668  0.48214512  0.51704461     0.18300
C1045       C  0.75571829  0.51294894  0.51093044     0.15600
C1046       C  0.77515668  0.52899824  0.55577544    -0.18900
C1047       C  0.74753065  0.52720084  0.46000698    -0.20700
C1048       C  0.72854909  0.51088376  0.41526056    -0.13300
C1049       C  0.71736612  0.48002436  0.42060200     0.03400
C1050       C  0.72521217  0.46591665  0.47188026    -0.25400
H1051       H  0.77805878  0.47282464  0.65187395     0.08500
H1052       H  0.74413700  0.44441760  0.57361090     0.12100
H1053       H  0.78372895  0.55263109  0.55062819     0.12000
H1054       H  0.75600751  0.55084588  0.45470326     0.11800
H1055       H  0.72289074  0.52232824  0.37630505     0.12300
H1056       H  0.71677711  0.44213989  0.47662167     0.14200
C1057       C  0.86792178  0.60620567  0.41009480    -0.05800
C1058       C  0.83969277  0.59896923  0.41007008    -0.05700
C1059       C  0.83462987  0.59669752  0.45851725    -0.23900
C1060       C  0.85790025  0.60082762  0.50768508     0.18300
C1061       C  0.88652058  0.60709964  0.50797376     0.12400
C1062       C  0.89119319  0.61029259  0.45935617    -0.18900
C1063       C  0.91014006  0.60965912  0.55690472    -0.20700
C1064       C  0.90544223  0.60628109  0.60533909    -0.13300
C1065       C  0.87697919  0.60115528  0.60557346     0.03400
C1066       C  0.85321576  0.59846109  0.55659834    -0.25400
H1067       H  0.82154741  0.59526032  0.37263903     0.08500
H1068       H  0.81262255  0.59140598  0.45756924     0.12100
H1069       H  0.91323372  0.61511177  0.45997157     0.12000
H1070       H  0.93226875  0.61403964  0.55769526     0.11800
H1071       H  0.92397576  0.60817628  0.64271280     0.12300
H1072       H  0.83127913  0.59378467  0.55667103     0.14200
C1073       C  0.89153712  0.55942234  0.92463660    -0.05800
C1074       C  0.90060379  0.53050161  0.95439071    -0.05700
C1075       C  0.90129730  0.52857509  0.00714797    -0.23900
C1076       C  0.89219534  0.55530101  0.03068979     0.18300
C1077       C  0.88345492  0.58471391  0.00142936     0.15600
C1078       C  0.88365022  0.58677788  0.94887228    -0.18900
C1079       C  0.87383045  0.61119592  0.02468330    -0.20700
C1080       C  0.87262067  0.60850317  0.07616357    -0.13300
C1081       C  0.88109003  0.57930845  0.10560262     0.03400
C1082       C  0.89112326  0.55284940  0.08254705    -0.25400
H1083       H  0.90664305  0.50911699  0.93637182     0.08500
H1084       H  0.90813009  0.50585656  0.02897476     0.12100
H1085       H  0.87612826  0.60900350  0.92585573     0.12000
H1086       H  0.86698367  0.63391912  0.00287625     0.11800
H1087       H  0.86505186  0.62938636  0.09295546     0.12300
H1088       H  0.89798531  0.53025922  0.10478404     0.14200
C1089       C  0.51333669  0.42856198  0.75974890    -0.05800
C1090       C  0.51530175  0.43691139  0.81213008    -0.05700
C1091       C  0.99200480  0.45261537  0.82143447    -0.23900
C1092       C  0.96620535  0.46024824  0.77850441     0.18300
C1093       C  0.96281944  0.44947110  0.72615357     0.15600
C1094       C  0.98642806  0.43332647  0.71709698    -0.18900
C1095       C  0.93662644  0.45700604  0.68349767    -0.20700
C1096       C  0.91477402  0.47637373  0.69231057    -0.13300
C1097       C  0.91905348  0.48881653  0.74366148     0.03400
C1098       C  0.94446470  0.48000969  0.78677167    -0.25400
H1099       H  0.53576106  0.43335096  0.84562234     0.08500
H1100       H  0.49471729  0.46024937  0.86187713     0.12100
H1101       H  0.98477764  0.42731158  0.67649099     0.12000
H1102       H  0.93348130  0.44887709  0.64312410     0.11800
H1103       H  0.89522526  0.48299338  0.65862126     0.12300
H1104       H  0.94767138  0.48938893  0.82655395     0.14200
C1105       C  0.67284909  0.49742006  0.75772666    -0.05800
C1106       C  0.66852081  0.51609510  0.71143275    -0.05700
C1107       C  0.69072427  0.53655506  0.70801922    -0.23900
C1108       C  0.71757182  0.53898929  0.75111050     0.18300
C1109       C  0.72152421  0.52175228  0.79906271     0.15600
C1110       C  0.69921272  0.50094559  0.80198115    -0.18900
C1111       C  0.74831293  0.52433091  0.84221806    -0.20700
C1112       C  0.77183175  0.54130062  0.83621168    -0.13300
C1113       C  0.76893017  0.55628733  0.78713141     0.03400
C1114       C  0.74115034  0.55656899  0.74574886    -0.25400
H1115       H  0.64839954  0.51379196  0.67693671     0.08500
H1116       H  0.68724693  0.54965222  0.67100174     0.12100
H1117       H  0.70262923  0.48688520  0.83811458     0.12000
H1118       H  0.75162868  0.51170427  0.87958819     0.11800
H1119       H  0.79292416  0.54083086  0.86883983     0.12300
H1120       H  0.73860413  0.56780027  0.70758081     0.14200
loop_ 
_geom_bond_atom_site_label_1 
_geom_bond_atom_site_label_2 
_geom_bond_distance 
_geom_bond_site_symmetry_2 
_ccdc_geom_bond_type 
O1          Cr19   2.014       .  S
O1            C9   1.269       .  A
O2          Cr19   1.967       .  S
O2            C3   1.259       .  A
C3            O4   1.272       .  A
C3          C553   1.484       .  S
O4          Cr20   2.027       .  S
O5          Cr20   1.994       .  S
O5            C6   1.264       .  A
C6            O7   1.260       .  A
C6          C473   1.485       .  S
O7          Cr21   1.989       .  S
O8          Cr21   1.989       .  S
O8            C9   1.265       .  A
C9          C513   1.478       .  S
O10         Cr19   1.986       .  S
O10          C18   1.257       .  A
O11         Cr19   2.008       .  S
O11          C12   1.264       .  A
C12          O13   1.255       .  A
C12         C481   1.478       .  S
O13         Cr20   1.962       .  S
O14         Cr20   2.008       .  S
O14          C15   1.271       .  A
C15          O16   1.267       .  A
C15         C505   1.472       .  S
O16         Cr21   1.979       .  S
O17         Cr21   2.011       .  S
O17          C18   1.264       .  A
C18         C537   1.472       .  S
Cr19         O22   1.767       .  S
Cr20         O22   1.769       .  S
Cr21         O22   1.769       .  S
O23         Cr41   2.031       .  S
O23          C31   1.281       .  A
O24         Cr41   1.957       .  S
O24          C25   1.257       .  A
C25          O26   1.269       .  A
C25         C449   1.481       .  S
O26         Cr42   2.026       .  S
O27         Cr42   2.004       .  S
O27          C28   1.261       .  A
C28          O29   1.253       .  A
C28         C401   1.485       .  S
O29         Cr43   1.979       .  S
O30         Cr43   1.975       .  S
O30          C31   1.272       .  A
C31         C521   1.487       .  S
O32         Cr41   2.008       .  S
O32          C40   1.256       .  A
O33         Cr41   2.012       .  S
O33          C34   1.268       .  A
C34          O35   1.255       .  A
C34         C417   1.476       .  S
O35         Cr42   1.960       .  S
O36         Cr42   2.013       .  S
O36          C37   1.276       .  A
C37          O38   1.272       .  A
C37         C497   1.478       .  S
O38         Cr43   1.984       .  S
O39         Cr43   1.986       .  S
O39          C40   1.252       .  A
C40         C433   1.484       .  S
Cr41         O44   1.769       .  S
Cr42         O44   1.776       .  S
Cr43         O44   1.772       .  S
O45         Cr63   1.988       .  S
O45          C53   1.265       .  A
O46         Cr63   2.008       .  S
O46          C47   1.264       .  A
C47          O48   1.266       .  A
C47         C361   1.496       .  S
O48         Cr64   2.001       .  S
O49         Cr64   2.008       .  S
O49          C50   1.267       .  A
C50          O51   1.263       .  A
C50         C441   1.486       .  S
O51         Cr65   1.980       .  S
O52         Cr65   2.014       .  S
O52          C53   1.269       .  A
C53         C377   1.476       .  S
O54         Cr63   2.020       .  S
O54          C62   1.265       .  A
O55         Cr63   1.982       .  S
O55          C56   1.265       .  A
C56          O57   1.265       .  A
C56         C393   1.461       .  S
O57         Cr64   1.989       .  S
O58         Cr64   1.978       .  S
O58          C59   1.259       .  A
C59          O60   1.263       .  A
C59         C489   1.479       .  S
O60         Cr65   1.996       .  S
O61         Cr65   1.992       .  S
O61          C62   1.258       .  A
C62         C457   1.483       .  S
Cr63         O66   1.773       .  S
Cr64         O66   1.771       .  S
Cr65         O66   1.770       .  S
O67         Cr85   1.976       .  S
O67          C75   1.266       .  A
O68         Cr85   2.003       .  S
O68          C69   1.264       .  A
C69          O70   1.264       .  A
C69         C337   1.491       .  S
O70         Cr86   1.992       .  S
O71         Cr86   2.032       .  S
O71          C72   1.270       .  A
C72          O73   1.255       .  A
C72         C529   1.478       .  S
O73         Cr87   1.952       .  S
O74         Cr87   2.019       .  S
O74          C75   1.273       .  A
C75         C369   1.485       .  S
O76         Cr85   2.018       .  S
O76          C84   1.264       .  A
O77         Cr85   1.979       .  S
O77          C78   1.266       .  A
C78          O79   1.269       .  A
C78         C385   1.471       .  S
O79         Cr86   2.001       .  S
O80         Cr86   1.954       .  S
O80          C81   1.253       .  A
C81          O82   1.268       .  A
C81         C425   1.481       .  S
O82         Cr87   2.030       .  S
O83         Cr87   1.989       .  S
O83          C84   1.259       .  A
C84         C545   1.482       .  S
Cr85         O88   1.770       .  S
Cr86         O88   1.770       .  S
Cr87         O88   1.765       .  S
O89        Cr107   1.980       .  S
O89          C97   1.267       .  A
O90        Cr107   1.979       .  S
O90          C91   1.254       .  A
C91          O92   1.261       .  A
C91         C409   1.485       .  S
O92        Cr108   2.002       .  S
O93        Cr108   2.026       .  S
O93          C94   1.270       .  A
C94          O95   1.259       .  A
C94         C329   1.487       .  S
O95        Cr109   1.966       .  S
O96        Cr109   2.006       .  S
O96          C97   1.271       .  A
C97         C297   1.469       .  S
O98        Cr107   1.995       .  S
O98         C106   1.258       .  A
O99        Cr107   1.976       .  S
O99         C100   1.270       .  A
C100        O101   1.276       .  A
C100        C281   1.476       .  S
O101       Cr108   2.016       .  S
O102       Cr108   1.958       .  S
O102        C103   1.255       .  A
C103        O104   1.264       .  A
C103        C257   1.477       .  S
O104       Cr109   2.002       .  S
O105       Cr109   2.002       .  S
O105        C106   1.259       .  A
C106        C305   1.480   1_565  S
Cr107       O110   1.771       .  S
Cr108       O110   1.775       .  S
Cr109       O110   1.771       .  S
O111       Cr129   1.986       .  S
O111        C119   1.264       .  A
O112       Cr129   1.987       .  S
O112        C113   1.260       .  A
C113        O114   1.264       .  A
C113        C465   1.484       .  S
O114       Cr130   1.996       .  S
O115       Cr130   2.027       .  S
O115        C116   1.271       .  A
C116        O117   1.260       .  A
C116        C249   1.486       .  S
O117       Cr131   1.967       .  S
O118       Cr131   1.994       .  S
O118        C119   1.266       .  A
C119        C289   1.475       .  S
O120       Cr129   2.011       .  S
O120        C128   1.264       .  A
O121       Cr129   1.978       .  S
O121        C122   1.266       .  A
C122        O123   1.271       .  A
C122        C273   1.474       .  S
O123       Cr130   2.008       .  S
O124       Cr130   1.968       .  S
O124        C125   1.258       .  A
C125        O126   1.261       .  A
C125        C209   1.473       .  S
O126       Cr131   1.992       .  S
O127       Cr131   1.980       .  S
O127        C128   1.257       .  A
C128        C225   1.474       .  S
Cr129       O132   1.771       .  S
Cr130       O132   1.770       .  S
Cr131       O132   1.765       .  S
O133       Cr151   1.994       .  S
O133        C141   1.266       .  A
O134       Cr151   1.977       .  S
O134        C135   1.262       .  A
C135        O136   1.268       .  A
C135        C313   1.487       .  S
O136       Cr152   2.015       .  S
O137       Cr152   2.004       .  S
O137        C138   1.267       .  A
C138        O139   1.264       .  A
C138        C353   1.495       .  S
O139       Cr153   2.007       .  S
O140       Cr153   1.979       .  S
O140        C141   1.264       .  A
C141        C185   1.467       .  S
O142       Cr151   1.996       .  S
O142        C150   1.259       .  A
O143       Cr151   1.982       .  S
O143        C144   1.260       .  A
C144        O145   1.261       .  A
C144        C217   1.474       .  S
O145       Cr152   1.982       .  S
O146       Cr152   2.003       .  S
O146        C147   1.269       .  A
C147        O148   1.265       .  A
C147        C201   1.475       .  S
O148       Cr153   1.976       .  S
O149       Cr153   2.012       .  S
O149        C150   1.263       .  A
C150        C321   1.485   1_545  S
Cr151       O154   1.770       .  S
Cr152       O154   1.773       .  S
Cr153       O154   1.774       .  S
O155       Cr173   1.956       .  S
O155        C163   1.261       .  A
O156       Cr173   1.983       .  S
O156        C157   1.261       .  A
C157        O158   1.264       .  A
C157        C233   1.464       .  S
O158       Cr174   1.997       .  S
O159       Cr174   1.992       .  S
O159        C160   1.259       .  A
C160        O161   1.256       .  A
C160        C345   1.484       .  S
O161       Cr175   1.983       .  S
O162       Cr175   2.017       .  S
O162        C163   1.271       .  A
C163        C177   1.460       .  S
O164       Cr173   2.003       .  S
O164        C172   1.256       .  A
O165       Cr173   1.992       .  S
O165        C166   1.267       .  A
C166        O167   1.264       .  A
C166        C265   1.472       .  S
O167       Cr174   1.991       .  S
O168       Cr174   1.958       .  S
O168        C169   1.261       .  A
C169        O170   1.270       .  A
C169        C193   1.476       .  S
O170       Cr175   2.008       .  S
O171       Cr175   1.974       .  S
O171        C172   1.254       .  A
C172        C241   1.476       .  S
Cr173       O176   1.782       .  S
Cr174       O176   1.779       .  S
Cr175       O176   1.784       .  S
C177        C178   1.400       .  A
C177        C182   1.402       .  A
C178        C179   1.398       .  A
C178        H187   1.083       .  S
C179        C180   1.405       .  A
C179        H188   1.084       .  S
C180        C186   1.399       .  A
C180        C181   1.413       .  A
C181        C183   1.403       .  A
C181        C182   1.398       .  A
C182        H189   1.085       .  S
C183        C184   1.397       .  A
C183        H190   1.084       .  S
C184        C185   1.401       .  A
C184        H191   1.083       .  S
C185        C186   1.405       .  A
C186        H192   1.085       .  S
C193        C194   1.405       .  A
C193        C198   1.408       .  A
C194        C195   1.396       .  A
C194        H203   1.082       .  S
C195        C196   1.402   1_556  A
C195        H204   1.085       .  S
C196        C202   1.399       .  A
C196        C197   1.412       .  A
C197        C199   1.402       .  A
C197        C198   1.398   1_554  A
C198        H205   1.086       .  S
C199        C200   1.396       .  A
C199        H206   1.085       .  S
C200        C201   1.405       .  A
C200        H207   1.082       .  S
C201        C202   1.407       .  A
C202        H208   1.085       .  S
C209        C210   1.406   1_565  A
C209        C214   1.403       .  A
C210        C771   1.396       .  A
C210        H219   1.083       .  S
C211        C212   1.401   1_655  A
C211        C770   1.396       .  A
C211        H220   1.084   1_655  S
C212        C218   1.401   1_556  A
C212        C773   1.414   1_446  A
C213        C215   1.398       .  A
C213        C214   1.397   1_554  A
C213        C772   1.414   1_564  A
C214        H221   1.085       .  S
C215        C776   1.392       .  A
C215        H222   1.084       .  S
C216        C217   1.408   1_565  A
C216        C775   1.392       .  A
C216        H223   1.083       .  S
C217        C218   1.404       .  A
C218        H224   1.084       .  S
C225        C226   1.404   1_565  A
C225        C230   1.404       .  A
C226        C227   1.399       .  A
C226        H235   1.083       .  S
C227        C228   1.403       .  A
C227        H236   1.083       .  S
C228        C234   1.406       .  A
C228        C229   1.415       .  A
C229        C231   1.401       .  A
C229        C230   1.402   1_545  A
C230        H237   1.085       .  S
C231        C232   1.395       .  A
C231        H238   1.084       .  S
C232        C233   1.404       .  A
C232        H239   1.084       .  S
C233        C234   1.403       .  A
C234        H240   1.084       .  S
C241        C242   1.402       .  A
C241        C246   1.408   1_545  A
C242        C243   1.393       .  A
C242        H251   1.084       .  S
C243        C244   1.400   1_545  A
C243        H252   1.084   1_455  S
C244        C245   1.414       .  A
C244        C810   1.402   1_455  A
C245        C247   1.406       .  A
C245        C246   1.413       .  A
C246        H253   1.084       .  S
C247        C248   1.405       .  A
C247        H254   1.083       .  S
C248        C809   1.406   1_455  A
C248        H255   1.083       .  S
C249        C250   1.408       .  A
C249        C808   1.406       .  A
C250        C804   1.402       .  A
C250        H256   1.084       .  S
C257        C258   1.404   1_565  A
C257        C262   1.409       .  A
C258        C259   1.398       .  A
C258        H267   1.083       .  S
C259        C260   1.404   1_554  A
C259        H268   1.083       .  S
C260        C266   1.399       .  A
C260        C261   1.411   1_545  A
C261        C263   1.405       .  A
C261        C262   1.400   1_556  A
C262        H269   1.083       .  S
C263        C264   1.399       .  A
C263        H270   1.083       .  S
C264        C265   1.401   1_565  A
C264        H271   1.083       .  S
C265        C266   1.408       .  A
C266        H272   1.084       .  S
C273        C274   1.403       .  A
C273        C278   1.406       .  A
C274        C275   1.398       .  A
C274        H283   1.083       .  S
C275        C276   1.403   1_556  A
C275        H284   1.084       .  S
C276        C282   1.402       .  A
C276        C277   1.413       .  A
C277        C279   1.404       .  A
C277        C278   1.403   1_554  A
C278        H285   1.085       .  S
C279        C280   1.398       .  A
C279        H286   1.084       .  S
C280        C281   1.404       .  A
C280        H287   1.083       .  S
C281        C282   1.407       .  A
C282        H288   1.085       .  S
C289        C290   1.405       .  A
C289        C294   1.404       .  A
C290        C291   1.401       .  A
C290        H299   1.083       .  S
C291        C292   1.405       .  A
C291        H300   1.083       .  S
C292        C298   1.405       .  A
C292        C293   1.413       .  A
C293        C295   1.398       .  A
C293        C294   1.393       .  A
C294        H301   1.084       .  S
C295        C296   1.389       .  A
C295        H302   1.084       .  S
C296        C297   1.404       .  A
C296        H303   1.083       .  S
C297        C298   1.407       .  A
C298        H304   1.084       .  S
C305        C306   1.407       .  A
C305        C310   1.407       .  A
C306        C307   1.393       .  A
C306        H315   1.084   1_545  S
C307        C308   1.398       .  A
C307        H316   1.084       .  S
C308        C309   1.416       .  A
C308        C874   1.404       .  A
C309        C311   1.403       .  A
C309        C310   1.413       .  A
C310        H317   1.084       .  S
C311        C312   1.402       .  A
C311        H318   1.083       .  S
C312        C873   1.409       .  A
C312        H319   1.083       .  S
C313        C314   1.405   1_455  A
C313        C872   1.409   1_455  A
C314        C868   1.404       .  A
C314        H320   1.085   1_655  S
C321        C322   1.406       .  A
C321        C326   1.406       .  A
C322        C323   1.404       .  A
C322        H331   1.083       .  S
C323        C324   1.406       .  A
C323        H332   1.083       .  S
C324        C330   1.413       .  A
C324        C325   1.414       .  A
C325        C327   1.400       .  A
C325        C326   1.406       .  A
C326        H333   1.085   1_565  S
C327        C328   1.396       .  A
C327        H334   1.084       .  S
C328        C329   1.408       .  A
C328        H335   1.084       .  S
C329        C330   1.410       .  A
C330        H336   1.084       .  S
C337        C338   1.407       .  A
C337        C342   1.411       .  A
C338        C339   1.406       .  A
C338        H347   1.083       .  S
C339        C340   1.407       .  A
C339        H348   1.083       .  S
C340        C346   1.412       .  A
C340        C341   1.412       .  A
C341        C343   1.402       .  A
C341        C342   1.404       .  A
C342        H349   1.084       .  S
C343        C344   1.397       .  A
C343        H350   1.083       .  S
C344        C345   1.404       .  A
C344        H351   1.083       .  S
C345        C346   1.412       .  A
C346        H352   1.084       .  S
C353        C354   1.405       .  A
C353        C358   1.415       .  A
C354        C355   1.404       .  A
C354        H363   1.083       .  S
C355        C356   1.407       .  A
C355        H364   1.083       .  S
C356        C362   1.410       .  A
C356        C357   1.410       .  A
C357        C359   1.407       .  A
C357        C358   1.410       .  A
C358        H365   1.084       .  S
C359        C360   1.404       .  A
C359        H366   1.083       .  S
C360        C361   1.405       .  A
C360        H367   1.083       .  S
C361        C362   1.416       .  A
C362        H368   1.084       .  S
C369        C370   1.407       .  A
C369        C374   1.408       .  A
C370        C371   1.399       .  A
C370        H379   1.083       .  S
C371        C372   1.402   1_556  A
C371        H380   1.084   1_556  S
C372        C378   1.407       .  A
C372        C373   1.414   1_554  A
C373        C375   1.403   1_556  A
C373        C374   1.405       .  A
C374        H381   1.084       .  S
C375        C376   1.398       .  A
C375        H382   1.084   1_554  S
C376        C377   1.404       .  A
C376        H383   1.083       .  S
C377        C378   1.405       .  A
C378        H384   1.085       .  S
C385        C386   1.403       .  A
C385        C390   1.407       .  A
C386        C387   1.397       .  A
C386        H395   1.083       .  S
C387        C388   1.403       .  A
C387        H396   1.084       .  S
C388        C394   1.397       .  A
C388        C389   1.412       .  A
C389        C391   1.405       .  A
C389        C390   1.397       .  A
C390        H397   1.084       .  S
C391        C392   1.397       .  A
C391        H398   1.084       .  S
C392        C393   1.399       .  A
C392        H399   1.083       .  S
C393        C394   1.404       .  A
C394        H400   1.085       .  S
C401        C402   1.403       .  A
C401        C406   1.414       .  A
C402        C403   1.401       .  A
C402        H411   1.083       .  S
C403        C404   1.407       .  A
C403        H412   1.083       .  S
C404        C410   1.402       .  A
C404        C405   1.409       .  A
C405        C407   1.407       .  A
C405        C406   1.402       .  A
C406        H413   1.084       .  S
C407        C408   1.401       .  A
C407        H414   1.083       .  S
C408        C409   1.403       .  A
C408        H415   1.083       .  S
C409        C410   1.414       .  A
C410        H416   1.084       .  S
C417        C418   1.408       .  A
C417        C422   1.400       .  A
C418        C419   1.400       .  A
C418        H427   1.083       .  S
C419        C420   1.403       .  A
C419        H428   1.084       .  S
C420        C986   1.410       .  A
C420        C981   1.416       .  A
C421        C423   1.397   1_655  A
C421        C980   1.416       .  A
C421        C982   1.403       .  A
C422        C981   1.403       .  A
C422        H429   1.084       .  S
C423        C424   1.392       .  A
C423        H430   1.084       .  S
C424        C425   1.408       .  A
C424        H431   1.084       .  S
C425        C426   1.407       .  A
C426        C980   1.410   1_455  A
C426        H432   1.084       .  S
C433        C434   1.408       .  A
C433        C438   1.407       .  A
C434        C435   1.393       .  A
C434        H443   1.083       .  S
C435        C436   1.398       .  A
C435        H444   1.084       .  S
C436        C442   1.404       .  A
C436        C437   1.415       .  A
C437        C439   1.402       .  A
C437        C438   1.412       .  A
C438        H445   1.084       .  S
C439        C440   1.401       .  A
C439        H446   1.083       .  S
C440        C441   1.409       .  A
C440        H447   1.083       .  S
C441        C442   1.405       .  A
C442        H448   1.084       .  S
C449        C450   1.406       .  A
C449       C1014   1.409       .  A
C450        C451   1.395       .  A
C450        H459   1.084       .  S
C451       C1012   1.400       .  A
C451        H460   1.084       .  S
C452        C458   1.407       .  A
C452        C453   1.416       .  A
C452       C1011   1.400       .  A
C453        C455   1.406       .  A
C453        C454   1.414       .  A
C454       C1009   1.409   1_455  A
C454        H461   1.084       .  S
C455        C456   1.404       .  A
C455        H462   1.083       .  S
C456        C457   1.406       .  A
C456        H463   1.083       .  S
C457        C458   1.404       .  A
C458        H464   1.084       .  S
C465        C466   1.404       .  A
C465        C470   1.412       .  A
C466        C467   1.401       .  A
C466        H475   1.083       .  S
C467        C468   1.406       .  A
C467        H476   1.083       .  S
C468        C474   1.404       .  A
C468        C469   1.409       .  A
C469        C471   1.405       .  A
C469        C470   1.401       .  A
C470        H477   1.084       .  S
C471        C472   1.399       .  A
C471        H478   1.083       .  S
C472        C473   1.404       .  A
C472        H479   1.083       .  S
C473        C474   1.413       .  A
C474        H480   1.084       .  S
C481        C482   1.406       .  A
C481        C486   1.406       .  A
C482        C483   1.398       .  A
C482        H491   1.083       .  S
C483        C484   1.403       .  A
C483        H492   1.084       .  S
C484        C490   1.403       .  A
C484        C485   1.413       .  A
C485        C487   1.400       .  A
C485        C486   1.399       .  A
C486        H493   1.085       .  S
C487        C488   1.394       .  A
C487        H494   1.084       .  S
C488        C489   1.407       .  A
C488        H495   1.083       .  S
C489        C490   1.407       .  A
C490        H496   1.084       .  S
C497        C498   1.404       .  A
C497        C502   1.407       .  A
C498        C499   1.401       .  A
C498        H507   1.083       .  S
C499        C500   1.405       .  A
C499        H508   1.084       .  S
C500        C506   1.405       .  A
C500        C501   1.413       .  A
C501        C503   1.403       .  A
C501        C502   1.400       .  A
C502        H509   1.084       .  S
C503        C504   1.396       .  A
C503        H510   1.084       .  S
C504        C505   1.402       .  A
C504        H511   1.083       .  S
C505        C506   1.408       .  A
C506        H512   1.084       .  S
C513        C514   1.405       .  A
C513        C518   1.406       .  A
C514        C515   1.398   1_556  A
C514        H523   1.083       .  S
C515        C516   1.402       .  A
C515        H524   1.084       .  S
C516        C522   1.406       .  A
C516        C517   1.414       .  A
C517        C519   1.402       .  A
C517        C518   1.408   1_554  A
C518        H525   1.084       .  S
C519        C520   1.399       .  A
C519        H526   1.084       .  S
C520        C521   1.407       .  A
C520        H527   1.083       .  S
C521        C522   1.408       .  A
C522        H528   1.084       .  S
C529        C530   1.407       .  A
C529       C1094   1.408   1_455  A
C530       C1091   1.392   1_455  A
C530        H539   1.084       .  S
C531        C532   1.398       .  A
C531       C1090   1.392       .  A
C531       H1100   1.084       .  S
C532        C538   1.401       .  A
C532        C533   1.415       .  A
C533        C535   1.405       .  A
C533        C534   1.410       .  A
C534       C1089   1.408       .  A
C534        H541   1.084       .  S
C535        C536   1.402       .  A
C535        H542   1.084       .  S
C536        C537   1.404       .  A
C536        H543   1.083       .  S
C537        C538   1.401       .  A
C538        H544   1.085       .  S
H540       C1091   1.084       .  S
C545        C546   1.404       .  A
C545        C550   1.408       .  A
C546        C547   1.399       .  A
C546        H555   1.083       .  S
C547        C548   1.403       .  A
C547        H556   1.084       .  S
C548        C554   1.407       .  A
C548        C549   1.414       .  A
C549        C551   1.402       .  A
C549        C550   1.408       .  A
C550        H557   1.084       .  S
C551        C552   1.399       .  A
C551        H558   1.084       .  S
C552        C553   1.408       .  A
C552        H559   1.083       .  S
C553        C554   1.407       .  A
C554        H560   1.084       .  S
O561       Cr579   2.013       .  S
O561        C569   1.268       .  A
O562       Cr579   1.967       .  S
O562        C563   1.259       .  A
C563        O564   1.272       .  A
C563       C1113   1.484       .  S
O564       Cr580   2.027       .  S
O565       Cr580   1.993       .  S
O565        C566   1.264       .  A
C566        O567   1.260       .  A
C566       C1033   1.485       .  S
O567       Cr581   1.989       .  S
O568       Cr581   1.989       .  S
O568        C569   1.265       .  A
C569       C1073   1.478       .  S
O570       Cr579   1.986       .  S
O570        C578   1.257       .  A
O571       Cr579   2.008       .  S
O571        C572   1.264       .  A
C572        O573   1.255       .  A
C572       C1041   1.478       .  S
O573       Cr580   1.962       .  S
O574       Cr580   2.009       .  S
O574        C575   1.271       .  A
C575        O576   1.267       .  A
C575       C1065   1.472       .  S
O576       Cr581   1.979       .  S
O577       Cr581   2.011       .  S
O577        C578   1.264       .  A
C578       C1097   1.472       .  S
Cr579       O582   1.767       .  S
Cr580       O582   1.769       .  S
Cr581       O582   1.769       .  S
O583       Cr601   2.031       .  S
O583        C591   1.281       .  A
O584       Cr601   1.957       .  S
O584        C585   1.257       .  A
C585        O586   1.269       .  A
C585       C1009   1.482       .  S
O586       Cr602   2.026       .  S
O587       Cr602   2.004       .  S
O587        C588   1.261       .  A
C588        O589   1.253       .  A
C588        C961   1.485       .  S
O589       Cr603   1.979       .  S
O590       Cr603   1.975       .  S
O590        C591   1.272       .  A
C591       C1081   1.487       .  S
O592       Cr601   2.008       .  S
O592        C600   1.256       .  A
O593       Cr601   2.011       .  S
O593        C594   1.268       .  A
C594        O595   1.255       .  A
C594        C977   1.476       .  S
O595       Cr602   1.960       .  S
O596       Cr602   2.013       .  S
O596        C597   1.276       .  A
C597        O598   1.272       .  A
C597       C1057   1.478       .  S
O598       Cr603   1.984       .  S
O599       Cr603   1.986       .  S
O599        C600   1.252       .  A
C600        C993   1.484       .  S
Cr601       O604   1.769       .  S
Cr602       O604   1.776       .  S
Cr603       O604   1.772       .  S
O605       Cr623   1.988       .  S
O605        C613   1.265       .  A
O606       Cr623   2.008       .  S
O606        C607   1.264       .  A
C607        O608   1.266       .  A
C607        C921   1.496       .  S
O608       Cr624   2.001       .  S
O609       Cr624   2.008       .  S
O609        C610   1.267       .  A
C610        O611   1.263       .  A
C610       C1001   1.486       .  S
O611       Cr625   1.979       .  S
O612       Cr625   2.014       .  S
O612        C613   1.269       .  A
C613        C937   1.476       .  S
O614       Cr623   2.020       .  S
O614        C622   1.265       .  A
O615       Cr623   1.983       .  S
O615        C616   1.265       .  A
C616        O617   1.265       .  A
C616        C953   1.461       .  S
O617       Cr624   1.989       .  S
O618       Cr624   1.978       .  S
O618        C619   1.259       .  A
C619        O620   1.262       .  A
C619       C1049   1.479       .  S
O620       Cr625   1.996       .  S
O621       Cr625   1.992       .  S
O621        C622   1.258       .  A
C622       C1017   1.483       .  S
Cr623       O626   1.773       .  S
Cr624       O626   1.771       .  S
Cr625       O626   1.770       .  S
O627       Cr645   1.976       .  S
O627        C635   1.266       .  A
O628       Cr645   2.003       .  S
O628        C629   1.264       .  A
C629        O630   1.264       .  A
C629        C897   1.492       .  S
O630       Cr646   1.992       .  S
O631       Cr646   2.032       .  S
O631        C632   1.270       .  A
C632        O633   1.255       .  A
C632       C1089   1.478       .  S
O633       Cr647   1.952       .  S
O634       Cr647   2.019       .  S
O634        C635   1.273       .  A
C635        C929   1.485       .  S
O636       Cr645   2.018       .  S
O636        C644   1.264       .  A
O637       Cr645   1.980       .  S
O637        C638   1.267       .  A
C638        O639   1.269       .  A
C638        C945   1.471       .  S
O639       Cr646   2.000       .  S
O640       Cr646   1.954       .  S
O640        C641   1.254       .  A
C641        O642   1.268       .  A
C641        C985   1.481       .  S
O642       Cr647   2.030       .  S
O643       Cr647   1.989       .  S
O643        C644   1.259       .  A
C644       C1105   1.482       .  S
Cr645       O648   1.770       .  S
Cr646       O648   1.770       .  S
Cr647       O648   1.765       .  S
O649       Cr667   1.980       .  S
O649        C657   1.267       .  A
O650       Cr667   1.979       .  S
O650        C651   1.254       .  A
C651        O652   1.261       .  A
C651        C969   1.485       .  S
O652       Cr668   2.002       .  S
O653       Cr668   2.026       .  S
O653        C654   1.270       .  A
C654        O655   1.259       .  A
C654        C889   1.487       .  S
O655       Cr669   1.966       .  S
O656       Cr669   2.006       .  S
O656        C657   1.271       .  A
C657        C857   1.469       .  S
O658       Cr667   1.995       .  S
O658        C666   1.258       .  A
O659       Cr667   1.977       .  S
O659        C660   1.270       .  A
C660        O661   1.276       .  A
C660        C841   1.476       .  S
O661       Cr668   2.016       .  S
O662       Cr668   1.958       .  S
O662        C663   1.256       .  A
C663        O664   1.264       .  A
C663        C817   1.477       .  S
O664       Cr669   2.002       .  S
O665       Cr669   2.002       .  S
O665        C666   1.259       .  A
C666        C865   1.481   1_565  S
Cr667       O670   1.771       .  S
Cr668       O670   1.775       .  S
Cr669       O670   1.772       .  S
O671       Cr689   1.986       .  S
O671        C679   1.264       .  A
O672       Cr689   1.987       .  S
O672        C673   1.260       .  A
C673        O674   1.264       .  A
C673       C1025   1.485       .  S
O674       Cr690   1.996       .  S
O675       Cr690   2.027       .  S
O675        C676   1.271       .  A
C676        O677   1.260       .  A
C676        C809   1.486       .  S
O677       Cr691   1.967       .  S
O678       Cr691   1.994       .  S
O678        C679   1.266       .  A
C679        C849   1.475       .  S
O680       Cr689   2.011       .  S
O680        C688   1.264       .  A
O681       Cr689   1.978       .  S
O681        C682   1.266       .  A
C682        O683   1.271       .  A
C682        C833   1.474       .  S
O683       Cr690   2.009       .  S
O684       Cr690   1.968       .  S
O684        C685   1.258       .  A
C685        O686   1.261       .  A
C685        C769   1.473       .  S
O686       Cr691   1.992       .  S
O687       Cr691   1.980       .  S
O687        C688   1.257       .  A
C688        C785   1.474       .  S
Cr689       O692   1.771       .  S
Cr690       O692   1.770       .  S
Cr691       O692   1.765       .  S
O693       Cr711   1.994       .  S
O693        C701   1.266       .  A
O694       Cr711   1.977       .  S
O694        C695   1.262       .  A
C695        O696   1.268       .  A
C695        C873   1.487       .  S
O696       Cr712   2.015       .  S
O697       Cr712   2.004       .  S
O697        C698   1.267       .  A
C698        O699   1.264       .  A
C698        C913   1.495       .  S
O699       Cr713   2.007       .  S
O700       Cr713   1.979       .  S
O700        C701   1.264       .  A
C701        C745   1.467       .  S
O702       Cr711   1.996       .  S
O702        C710   1.259       .  A
O703       Cr711   1.982       .  S
O703        C704   1.260       .  A
C704        O705   1.261       .  A
C704        C777   1.474       .  S
O705       Cr712   1.982       .  S
O706       Cr712   2.002       .  S
O706        C707   1.269       .  A
C707        O708   1.265       .  A
C707        C761   1.475       .  S
O708       Cr713   1.976       .  S
O709       Cr713   2.013       .  S
O709        C710   1.263       .  A
C710        C881   1.485   1_545  S
Cr711       O714   1.770       .  S
Cr712       O714   1.773       .  S
Cr713       O714   1.774       .  S
O715       Cr733   1.957       .  S
O715        C723   1.261       .  A
O716       Cr733   1.983       .  S
O716        C717   1.261       .  A
C717        O718   1.264       .  A
C717        C793   1.464       .  S
O718       Cr734   1.997       .  S
O719       Cr734   1.992       .  S
O719        C720   1.259       .  A
C720        O721   1.256       .  A
C720        C905   1.484       .  S
O721       Cr735   1.983       .  S
O722       Cr735   2.017       .  S
O722        C723   1.271       .  A
C723        C737   1.459       .  S
O724       Cr733   2.002       .  S
O724        C732   1.256       .  A
O725       Cr733   1.993       .  S
O725        C726   1.267       .  A
C726        O727   1.264       .  A
C726        C825   1.472       .  S
O727       Cr734   1.991       .  S
O728       Cr734   1.958       .  S
O728        C729   1.261       .  A
C729        O730   1.270       .  A
C729        C753   1.476       .  S
O730       Cr735   2.007       .  S
O731       Cr735   1.974       .  S
O731        C732   1.254       .  A
C732        C801   1.476       .  S
Cr733       O736   1.782       .  S
Cr734       O736   1.779       .  S
Cr735       O736   1.784       .  S
C737        C738   1.400       .  A
C737        C742   1.402       .  A
C738        C739   1.398       .  A
C738        H747   1.083       .  S
C739        C740   1.405       .  A
C739        H748   1.084       .  S
C740        C746   1.399       .  A
C740        C741   1.413       .  A
C741        C743   1.403       .  A
C741        C742   1.398       .  A
C742        H749   1.085       .  S
C743        C744   1.397       .  A
C743        H750   1.084       .  S
C744        C745   1.401       .  A
C744        H751   1.083       .  S
C745        C746   1.405       .  A
C746        H752   1.085       .  S
C753        C754   1.405       .  A
C753        C758   1.408       .  A
C754        C755   1.396       .  A
C754        H763   1.082       .  S
C755        C756   1.402   1_556  A
C755        H764   1.085       .  S
C756        C762   1.399       .  A
C756        C757   1.412       .  A
C757        C759   1.402       .  A
C757        C758   1.398   1_554  A
C758        H765   1.086       .  S
C759        C760   1.396       .  A
C759        H766   1.085       .  S
C760        C761   1.405       .  A
C760        H767   1.082       .  S
C761        C762   1.407       .  A
C762        H768   1.085       .  S
C769        C770   1.406   1_565  A
C769        C774   1.403       .  A
C770        H779   1.083       .  S
C771        C772   1.401       .  A
C771        H780   1.084       .  S
C772        C778   1.401   1_556  A
C773        C775   1.398   1_655  A
C773        C774   1.397   1_554  A
C774        H781   1.085       .  S
C775        H782   1.084   1_455  S
C776        C777   1.408   1_565  A
C776        H783   1.083       .  S
C777        C778   1.404       .  A
C778        H784   1.084       .  S
C785        C786   1.404   1_565  A
C785        C790   1.404       .  A
C786        C787   1.399       .  A
C786        H795   1.083       .  S
C787        C788   1.403       .  A
C787        H796   1.083       .  S
C788        C794   1.406       .  A
C788        C789   1.415       .  A
C789        C791   1.401       .  A
C789        C790   1.402   1_545  A
C790        H797   1.085       .  S
C791        C792   1.395       .  A
C791        H798   1.084       .  S
C792        C793   1.404       .  A
C792        H799   1.084       .  S
C793        C794   1.403       .  A
C794        H800   1.084       .  S
C801        C802   1.402       .  A
C801        C806   1.408   1_545  A
C802        C803   1.393       .  A
C802        H811   1.084       .  S
C803        C804   1.400   1_545  A
C803        H812   1.084       .  S
C804        C805   1.414       .  A
C805        C807   1.406       .  A
C805        C806   1.413       .  A
C806        H813   1.084       .  S
C807        C808   1.405       .  A
C807        H814   1.083       .  S
C808        H815   1.083       .  S
C809        C810   1.408       .  A
C810        H816   1.084       .  S
C817        C818   1.404   1_565  A
C817        C822   1.409       .  A
C818        C819   1.398       .  A
C818        H827   1.083       .  S
C819        C820   1.404   1_554  A
C819        H828   1.083       .  S
C820        C826   1.399       .  A
C820        C821   1.411   1_545  A
C821        C823   1.405       .  A
C821        C822   1.400   1_556  A
C822        H829   1.083       .  S
C823        C824   1.399       .  A
C823        H830   1.083       .  S
C824        C825   1.401   1_565  A
C824        H831   1.083       .  S
C825        C826   1.408       .  A
C826        H832   1.084       .  S
C833        C834   1.403       .  A
C833        C838   1.406       .  A
C834        C835   1.398       .  A
C834        H843   1.083       .  S
C835        C836   1.403   1_556  A
C835        H844   1.084       .  S
C836        C842   1.402       .  A
C836        C837   1.413       .  A
C837        C839   1.404       .  A
C837        C838   1.403   1_554  A
C838        H845   1.085       .  S
C839        C840   1.399       .  A
C839        H846   1.084       .  S
C840        C841   1.404       .  A
C840        H847   1.083       .  S
C841        C842   1.407       .  A
C842        H848   1.085       .  S
C849        C850   1.405       .  A
C849        C854   1.404       .  A
C850        C851   1.401       .  A
C850        H859   1.083       .  S
C851        C852   1.405       .  A
C851        H860   1.083       .  S
C852        C858   1.405       .  A
C852        C853   1.413       .  A
C853        C855   1.398       .  A
C853        C854   1.393       .  A
C854        H861   1.084       .  S
C855        C856   1.389       .  A
C855        H862   1.084       .  S
C856        C857   1.404       .  A
C856        H863   1.083       .  S
C857        C858   1.407       .  A
C858        H864   1.084       .  S
C865        C866   1.407       .  A
C865        C870   1.407       .  A
C866        C867   1.393       .  A
C866        H875   1.084   1_545  S
C867        C868   1.398       .  A
C867        H876   1.084       .  S
C868        C869   1.416       .  A
C869        C871   1.403       .  A
C869        C870   1.413       .  A
C870        H877   1.084       .  S
C871        C872   1.402       .  A
C871        H878   1.083       .  S
C872        H879   1.083       .  S
C873        C874   1.405       .  A
C874        H880   1.085       .  S
C881        C882   1.406       .  A
C881        C886   1.406       .  A
C882        C883   1.404       .  A
C882        H891   1.083       .  S
C883        C884   1.406       .  A
C883        H892   1.083       .  S
C884        C890   1.413       .  A
C884        C885   1.414       .  A
C885        C887   1.400       .  A
C885        C886   1.406       .  A
C886        H893   1.085   1_565  S
C887        C888   1.396       .  A
C887        H894   1.084       .  S
C888        C889   1.408       .  A
C888        H895   1.084       .  S
C889        C890   1.410       .  A
C890        H896   1.084       .  S
C897        C898   1.407       .  A
C897        C902   1.411       .  A
C898        C899   1.406       .  A
C898        H907   1.083       .  S
C899        C900   1.407       .  A
C899        H908   1.083       .  S
C900        C906   1.412       .  A
C900        C901   1.412       .  A
C901        C903   1.402       .  A
C901        C902   1.404       .  A
C902        H909   1.084       .  S
C903        C904   1.397       .  A
C903        H910   1.083       .  S
C904        C905   1.404       .  A
C904        H911   1.083       .  S
C905        C906   1.412       .  A
C906        H912   1.084       .  S
C913        C914   1.405       .  A
C913        C918   1.415       .  A
C914        C915   1.404       .  A
C914        H923   1.083       .  S
C915        C916   1.407       .  A
C915        H924   1.083       .  S
C916        C922   1.411       .  A
C916        C917   1.410       .  A
C917        C919   1.407       .  A
C917        C918   1.410       .  A
C918        H925   1.084       .  S
C919        C920   1.404       .  A
C919        H926   1.083       .  S
C920        C921   1.405       .  A
C920        H927   1.083       .  S
C921        C922   1.416       .  A
C922        H928   1.084       .  S
C929        C930   1.407       .  A
C929        C934   1.408       .  A
C930        C931   1.399       .  A
C930        H939   1.083       .  S
C931        C932   1.402   1_556  A
C931        H940   1.084   1_556  S
C932        C938   1.407       .  A
C932        C933   1.414   1_554  A
C933        C935   1.403   1_556  A
C933        C934   1.406       .  A
C934        H941   1.084       .  S
C935        C936   1.398       .  A
C935        H942   1.084   1_554  S
C936        C937   1.404       .  A
C936        H943   1.083       .  S
C937        C938   1.405       .  A
C938        H944   1.085       .  S
C945        C946   1.403       .  A
C945        C950   1.407       .  A
C946        C947   1.397       .  A
C946        H955   1.083       .  S
C947        C948   1.403       .  A
C947        H956   1.084       .  S
C948        C954   1.397       .  A
C948        C949   1.412       .  A
C949        C951   1.405       .  A
C949        C950   1.397       .  A
C950        H957   1.084       .  S
C951        C952   1.397       .  A
C951        H958   1.084       .  S
C952        C953   1.399       .  A
C952        H959   1.083       .  S
C953        C954   1.404       .  A
C954        H960   1.085       .  S
C961        C962   1.403       .  A
C961        C966   1.414       .  A
C962        C963   1.401       .  A
C962        H971   1.083       .  S
C963        C964   1.407       .  A
C963        H972   1.083       .  S
C964        C970   1.402       .  A
C964        C965   1.409       .  A
C965        C967   1.407       .  A
C965        C966   1.402       .  A
C966        H973   1.084       .  S
C967        C968   1.401       .  A
C967        H974   1.083       .  S
C968        C969   1.403       .  A
C968        H975   1.083       .  S
C969        C970   1.414       .  A
C970        H976   1.084       .  S
C977        C978   1.408       .  A
C977        C982   1.400       .  A
C978        C979   1.400       .  A
C978        H987   1.083       .  S
C979        C980   1.403       .  A
C979        H988   1.084       .  S
C981        C983   1.397       .  A
C982        H989   1.084       .  S
C983        C984   1.392       .  A
C983        H990   1.084       .  S
C984        C985   1.408       .  A
C984        H991   1.084       .  S
C985        C986   1.407       .  A
C986        H992   1.084       .  S
C993        C994   1.408       .  A
C993        C998   1.407       .  A
C994        C995   1.393       .  A
C994       H1003   1.083       .  S
C995        C996   1.398       .  A
C995       H1004   1.084       .  S
C996       C1002   1.404       .  A
C996        C997   1.415       .  A
C997        C999   1.402       .  A
C997        C998   1.412       .  A
C998       H1005   1.084       .  S
C999       C1000   1.401       .  A
C999       H1006   1.083       .  S
C1000      C1001   1.409       .  A
C1000      H1007   1.083       .  S
C1001      C1002   1.405       .  A
C1002      H1008   1.084       .  S
C1009      C1010   1.406       .  A
C1010      C1011   1.395   1_655  A
C1010      H1019   1.084       .  S
C1011      H1020   1.084       .  S
C1012      C1018   1.407       .  A
C1012      C1013   1.416       .  A
C1013      C1015   1.406       .  A
C1013      C1014   1.414       .  A
C1014      H1021   1.084       .  S
C1015      C1016   1.404       .  A
C1015      H1022   1.083       .  S
C1016      C1017   1.406       .  A
C1016      H1023   1.083       .  S
C1017      C1018   1.404       .  A
C1018      H1024   1.084       .  S
C1025      C1026   1.404       .  A
C1025      C1030   1.412       .  A
C1026      C1027   1.401       .  A
C1026      H1035   1.083       .  S
C1027      C1028   1.406       .  A
C1027      H1036   1.083       .  S
C1028      C1034   1.404       .  A
C1028      C1029   1.409       .  A
C1029      C1031   1.405       .  A
C1029      C1030   1.401       .  A
C1030      H1037   1.084       .  S
C1031      C1032   1.399       .  A
C1031      H1038   1.083       .  S
C1032      C1033   1.404       .  A
C1032      H1039   1.083       .  S
C1033      C1034   1.413       .  A
C1034      H1040   1.084       .  S
C1041      C1042   1.405       .  A
C1041      C1046   1.406       .  A
C1042      C1043   1.398       .  A
C1042      H1051   1.083       .  S
C1043      C1044   1.403       .  A
C1043      H1052   1.084       .  S
C1044      C1050   1.403       .  A
C1044      C1045   1.413       .  A
C1045      C1047   1.400       .  A
C1045      C1046   1.399       .  A
C1046      H1053   1.085       .  S
C1047      C1048   1.394       .  A
C1047      H1054   1.084       .  S
C1048      C1049   1.407       .  A
C1048      H1055   1.083       .  S
C1049      C1050   1.407       .  A
C1050      H1056   1.084       .  S
C1057      C1058   1.404       .  A
C1057      C1062   1.407       .  A
C1058      C1059   1.401       .  A
C1058      H1067   1.083       .  S
C1059      C1060   1.405       .  A
C1059      H1068   1.084       .  S
C1060      C1066   1.405       .  A
C1060      C1061   1.413       .  A
C1061      C1063   1.403       .  A
C1061      C1062   1.400       .  A
C1062      H1069   1.084       .  S
C1063      C1064   1.396       .  A
C1063      H1070   1.084       .  S
C1064      C1065   1.402       .  A
C1064      H1071   1.083       .  S
C1065      C1066   1.408       .  A
C1066      H1072   1.084       .  S
C1073      C1074   1.405       .  A
C1073      C1078   1.406       .  A
C1074      C1075   1.398   1_556  A
C1074      H1083   1.083       .  S
C1075      C1076   1.402       .  A
C1075      H1084   1.084       .  S
C1076      C1082   1.406       .  A
C1076      C1077   1.414       .  A
C1077      C1079   1.402       .  A
C1077      C1078   1.408   1_554  A
C1078      H1085   1.084       .  S
C1079      C1080   1.399       .  A
C1079      H1086   1.084       .  S
C1080      C1081   1.407       .  A
C1080      H1087   1.083       .  S
C1081      C1082   1.408       .  A
C1082      H1088   1.084       .  S
C1089      C1090   1.407       .  A
C1090      H1099   1.084       .  S
C1091      C1092   1.398       .  A
C1092      C1098   1.401       .  A
C1092      C1093   1.415       .  A
C1093      C1095   1.405       .  A
C1093      C1094   1.410       .  A
C1094      H1101   1.084       .  S
C1095      C1096   1.402       .  A
C1095      H1102   1.084       .  S
C1096      C1097   1.404       .  A
C1096      H1103   1.083       .  S
C1097      C1098   1.401       .  A
C1098      H1104   1.085       .  S
C1105      C1106   1.404       .  A
C1105      C1110   1.408       .  A
C1106      C1107   1.399       .  A
C1106      H1115   1.083       .  S
C1107      C1108   1.403       .  A
C1107      H1116   1.084       .  S
C1108      C1114   1.407       .  A
C1108      C1109   1.414       .  A
C1109      C1111   1.402       .  A
C1109      C1110   1.408       .  A
C1110      H1117   1.084       .  S
C1111      C1112   1.399       .  A
C1111      H1118   1.084       .  S
C1112      C1113   1.408       .  A
C1112      H1119   1.083       .  S
C1113      C1114   1.407       .  A
C1114      H1120   1.084       .  S
