geometry optimzed in LAMMPS
_audit_creation_date              2020-12-01 
_audit_creation_method            'lammps2cif' 
_symmetry_space_group_name_H-M    'P1' 
_symmetry_Int_Tables_number       1 
_symmetry_cell_setting            triclinic 
loop_ 
_symmetry_equiv_pos_as_xyz 
  x,y,z 
_cell_length_a                    29.20823451 
_cell_length_b                    44.469821357032366 
_cell_length_c                    29.433956826419955 
_cell_angle_alpha                 90.09180683413025 
_cell_angle_beta                  110.4426799518508 
_cell_angle_gamma                 90.07440522206377 
loop_ 
_atom_site_label 
_atom_site_type_symbol 
_atom_site_fract_x 
_atom_site_fract_y 
_atom_site_fract_z 
_atom_site_charge 
O1          O  0.71344510  0.78648562  0.31001490    -0.80500
C2          C  0.60600517  0.86319776  0.15649270     0.98800
O3          O  0.59833613  0.86014588  0.19602975    -0.69700
O4          O  0.58317921  0.80572313  0.21901427    -0.73200
Al5        Al  0.62898915  0.83543146  0.25243468     1.49000
C6          C  0.58870041  0.77800622  0.22691264     0.94100
O7          O  0.67571185  0.77543393  0.17364965    -0.79500
O8          O  0.77001392  0.83758313  0.24689859    -0.73000
Al9        Al  0.69354511  0.78284993  0.24170613     1.90100
O10         O  0.71212097  0.81568443  0.15895781    -0.72100
O11         O  0.70554318  0.88075710  0.23983180    -0.71900
O12         O  0.64664427  0.85640222  0.15355568    -0.77600
O13         O  0.66687894  0.86788554  0.28860968    -0.75800
O14         O  0.67621091  0.82153293  0.23251115    -1.11900
O15         O  0.64978395  0.81213005  0.31227843    -0.71100
C16         C  0.68568158  0.79470949  0.33235383     0.99600
C17         C  0.69567964  0.78933519  0.14791747     0.96000
Al18       Al  0.70579947  0.84570554  0.20257272     1.55600
O19         O  0.63097451  0.76685639  0.23898842    -0.75800
C20         C  0.69197681  0.88652977  0.27512674     1.00100
C21         C  0.78787777  0.81143466  0.25241283     0.95000
O22         O  0.76040077  0.78881648  0.24772551    -0.81100
O23         O  0.22279516  0.78199613  0.69057475    -0.80500
C24         C  0.33634556  0.86047637  0.83841020     0.98800
O25         O  0.34094601  0.85757134  0.79738276    -0.69700
O26         O  0.35391390  0.80316452  0.77198404    -0.73200
Al27       Al  0.30682265  0.83285771  0.74162571     1.49000
C28         C  0.34811894  0.77518304  0.76844360     0.94100
O29         O  0.26547484  0.77295446  0.82679288    -0.79500
O30         O  0.17055160  0.83521857  0.75573735    -0.73000
Al31       Al  0.24495952  0.77980571  0.75846189     1.90100
O32         O  0.23084549  0.81333113  0.84239523    -0.72100
O33         O  0.23538886  0.87812318  0.76192189    -0.71900
O34         O  0.29729499  0.85271947  0.84435994    -0.77600
O35         O  0.26768811  0.86575422  0.70783301    -0.75800
O36         O  0.26250026  0.81864259  0.76561893    -1.11900
O37         O  0.28171215  0.80978283  0.68177489    -0.71100
C38         C  0.24694783  0.79103142  0.66514956     0.99600
C39         C  0.24781998  0.78727958  0.85391692     0.96000
Al40       Al  0.23594936  0.84285223  0.79806398     1.55600
O41         O  0.30636262  0.76386332  0.75960215    -0.75800
C42         C  0.24613653  0.88457782  0.72530251     1.00100
C43         C  0.15171896  0.80924031  0.74913644     0.95000
O44         O  0.17855709  0.78629066  0.75414768    -0.81100
O45         O  0.67831859  0.70435969  0.73263085    -0.80500
C46         C  0.84769862  0.63788491  0.83117751     0.98800
O47         O  0.80482846  0.63003752  0.82707465    -0.69700
O48         O  0.76600257  0.67595133  0.85577983    -0.73200
Al49       Al  0.74431549  0.65113407  0.79984036     1.49000
C50         C  0.75532980  0.70325135  0.85768349     0.94100
O51         O  0.81151552  0.73043956  0.77905396    -0.79500
O52         O  0.76305691  0.67169745  0.67183146    -0.73000
Al53       Al  0.74603170  0.71440228  0.75627419     1.90100
O54         O  0.84020435  0.69961417  0.73768275    -0.72100
O55         O  0.78380491  0.62168763  0.72752480    -0.71900
O56         O  0.85479070  0.65378323  0.79855157    -0.77600
O57         O  0.71926383  0.62278777  0.74855479    -0.75800
O58         O  0.76538224  0.67619148  0.76398165    -1.11900
O59         O  0.68020610  0.66730393  0.78185287    -0.71100
C60         C  0.65681958  0.68762702  0.75349246     0.99600
C61         C  0.84215865  0.72438377  0.75895594     0.96000
Al62       Al  0.80694179  0.66266440  0.73632033     1.55600
O63         O  0.74500645  0.71962312  0.82042344    -0.75800
C64         C  0.74572837  0.60909033  0.72945799     1.00100
C65         C  0.74518730  0.69769030  0.65882721     0.95000
O66         O  0.74203398  0.71643931  0.69006267    -0.81100
O67         O  0.25901340  0.70515941  0.27403754    -0.80500
C68         C  0.09893706  0.63393303  0.16407025     0.98800
O69         O  0.14310592  0.62755882  0.17136107    -0.69700
O70         O  0.18200982  0.67503941  0.14822543    -0.73200
Al71       Al  0.20131993  0.65042153  0.20347260     1.49000
C72         C  0.19107740  0.70258578  0.14677608     0.94100
O73         O  0.12487435  0.72730589  0.21879476    -0.79500
O74         O  0.16853034  0.66871699  0.32507204    -0.73000
Al75       Al  0.19096707  0.71303073  0.24561643     1.90100
O76         O  0.09253131  0.69420067  0.25349469    -0.72100
O77         O  0.15722161  0.61874659  0.27067071    -0.71900
O78         O  0.08796734  0.64866045  0.19558486    -0.77600
O79         O  0.22456819  0.62231109  0.25453393    -0.75800
O80         O  0.17456614  0.67420512  0.23636585    -1.11900
O81         O  0.26460922  0.66862027  0.22658922    -0.71100
C82         C  0.28428932  0.68957547  0.25582970     0.99600
C83         C  0.09044898  0.71909441  0.23260310     0.96000
Al84       Al  0.13045626  0.65876536  0.25935675     1.55600
O85         O  0.19691641  0.71912537  0.18337014    -0.75800
C86         C  0.19689827  0.60748130  0.27071853     1.00100
C87         C  0.18531628  0.69475028  0.33933382     0.95000
O88         O  0.18974493  0.71419281  0.30980879    -0.81100
O89         O  0.77577642  0.19880953  0.29178251    -0.80500
C90         C  0.60632079  0.13618300  0.17683162     0.98800
O91         O  0.64958922  0.12792893  0.18427378    -0.69700
O92         O  0.69094978  0.17509665  0.16249425    -0.73200
Al93       Al  0.70939650  0.14894535  0.21622957     1.49000
C94         C  0.70527499  0.20190940  0.16379844     0.94100
O95         O  0.64531780  0.22886573  0.23816616    -0.79500
O96         O  0.67777981  0.16817252  0.33989663    -0.73000
Al97       Al  0.70892316  0.21093615  0.26404328     1.90100
O98         O  0.60635104  0.19652456  0.26763973    -0.72100
O99         O  0.66420783  0.11880779  0.28405420    -0.71900
O100        O  0.59691155  0.15123530  0.20888223    -0.77600
O101        O  0.73082591  0.11999703  0.26593842    -0.75800
O102        O  0.68646888  0.17331140  0.25159990    -1.11900
O103        O  0.77398517  0.16448445  0.23822446    -0.71100
C104        C  0.79763061  0.18321690  0.26978510     0.99600
C105        C  0.60871183  0.22173717  0.24928693     0.96000
Al106      Al  0.64033035  0.15966282  0.27333098     1.55600
O107        O  0.71583325  0.21726700  0.20231586    -0.75800
C108        C  0.70307720  0.10644167  0.28363298     1.00100
C109        C  0.69743262  0.19331150  0.35584210     0.95000
O110        O  0.70715920  0.21190370  0.32805967    -0.81100
O111        O  0.18177639  0.20309794  0.75518667    -0.80500
C112        C  0.34743926  0.13346909  0.84370822     0.98800
O113        O  0.30503629  0.12421369  0.83911026    -0.69700
O114        O  0.26875436  0.16822062  0.87272873    -0.73200
Al115      Al  0.24469059  0.14619110  0.81494809     1.49000
C116        C  0.26050098  0.19530121  0.87889756     0.94100
O117        O  0.31644072  0.22467589  0.80310579    -0.79500
O118        O  0.26001152  0.17180799  0.68773227    -0.73000
Al119      Al  0.24978555  0.21117293  0.77891500     1.90100
O120        O  0.34006856  0.19660892  0.75440175    -0.72100
O121        O  0.28071720  0.11940714  0.73817324    -0.71900
O122        O  0.35374148  0.14926730  0.81062524    -0.77600
O123        O  0.21762448  0.11975145  0.76166511    -0.75800
O124        O  0.26585278  0.17251307  0.78100059    -1.11900
O125        O  0.18105488  0.16368885  0.79956967    -0.71100
C126        C  0.15926663  0.18570116  0.77402505     0.99600
C127        C  0.34562499  0.21942733  0.78105588     0.96000
Al128      Al  0.30522415  0.16002041  0.75021007     1.55600
O129        O  0.25024896  0.21371795  0.84417822    -0.75800
C130        C  0.24336157  0.10655158  0.74127368     1.00100
C131        C  0.24552543  0.19886196  0.67844633     0.95000
O132        O  0.24502180  0.21628279  0.71249890    -0.81100
O133        O  0.72092597  0.28298422  0.70417771    -0.80500
C134        C  0.83671804  0.36106238  0.85091503     0.98800
O135        O  0.83750063  0.36069259  0.80795156    -0.69700
O136        O  0.85077129  0.30816926  0.77565007    -0.73200
Al137      Al  0.80059967  0.33677881  0.75106224     1.49000
C138        C  0.84841097  0.27996634  0.77550924     0.94100
O139        O  0.77206417  0.27320152  0.84021637    -0.79500
O140        O  0.67119417  0.33397515  0.77646366    -0.73000
Al141      Al  0.74704784  0.28069283  0.77208405     1.90100
O142        O  0.73582920  0.31148386  0.85951118    -0.72100
O143        O  0.73302226  0.37871229  0.78232630    -0.71900
O144        O  0.79966556  0.35184343  0.85935099    -0.77600
O145        O  0.75671388  0.36926627  0.72155333    -0.75800
O146        O  0.76150260  0.31993080  0.77910933    -1.11900
O147        O  0.77280506  0.31447088  0.69039046    -0.71100
C148        C  0.74092369  0.29372011  0.67614893     0.99600
C149        C  0.75664737  0.28641607  0.86997183     0.96000
Al150      Al  0.73710448  0.34218794  0.81584014     1.55600
O151        O  0.80845359  0.26711633  0.77021243    -0.75800
C152        C  0.73822649  0.38709090  0.74374628     1.00100
C153        C  0.65415438  0.30751727  0.76994501     0.95000
O154        O  0.68173400  0.28528481  0.77177128    -0.81100
O155        O  0.22910338  0.28681814  0.33285459    -0.80500
C156        C  0.11576253  0.35380446  0.16705601     0.98800
O157        O  0.10963252  0.35352974  0.20756296    -0.69700
O158        O  0.09760280  0.30111257  0.23946538    -0.73200
Al159      Al  0.14233535  0.33216486  0.26741628     1.49000
C160        C  0.10348392  0.27387099  0.25098342     0.94100
O161        O  0.18849741  0.26546903  0.20018521    -0.79500
O162        O  0.28129023  0.33116852  0.25660932    -0.73000
Al163      Al  0.20790472  0.27807976  0.26559338     1.90100
O164        O  0.21996964  0.30391435  0.17389536    -0.72100
O165        O  0.21615756  0.37488043  0.24441732    -0.71900
O166        O  0.15563715  0.34543710  0.16397219    -0.77600
O167        O  0.17995606  0.36632364  0.29708361    -0.75800
O168        O  0.18897020  0.31605423  0.24895561    -1.11900
O169        O  0.16446194  0.31277649  0.33090967    -0.71100
C170        C  0.20076357  0.29627831  0.35378412     0.99600
C171        C  0.20287839  0.27750616  0.16873920     0.96000
Al172      Al  0.21600684  0.33715021  0.21313665     1.55600
O173        O  0.14609400  0.26310333  0.26661192    -0.75800
C174        C  0.20276592  0.38369276  0.27861867     1.00100
C175        C  0.30032700  0.30543599  0.26650733     0.95000
O176        O  0.27407477  0.28317730  0.26818170    -0.81100
C177        C  0.91300110  0.38448293  0.97894189     0.13900
C178        C  0.96004600  0.37499881  0.98225616     0.00900
C179        C  0.96734968  0.36603905  0.93924073     0.15900
C180        C  0.92786752  0.36452926  0.89500266     0.25300
C181        C  0.88000390  0.37070910  0.89314595    -0.41100
C182        C  0.87342330  0.38185839  0.93528726     0.32300
C183        C  0.99974649  0.37197536  0.03091953     0.01000
F184        F  0.01197732  0.35668572  0.94044322    -0.13400
F185        F  0.82816346  0.38937324  0.93468040    -0.13900
C186        C  0.99046830  0.35660772  0.06875138     0.15900
C187        C  0.02747726  0.35247954  0.11387175     0.25300
C188        C  0.07528974  0.36253791  0.12198878    -0.41000
C189        C  0.08477232  0.37808244  0.08451009     0.32200
C190        C  0.04727801  0.38318769  0.03978141     0.14000
F191        F  0.94598919  0.34412173  0.06134729    -0.13400
F192        F  0.13046191  0.38838804  0.09122571    -0.13900
F193        F  0.01713987  0.33686238  0.14865708    -0.16200
F194        F  0.05752749  0.39915029  0.00522057    -0.14700
F195        F  0.90493343  0.39542064  0.01857766    -0.14700
F196        F  0.93607495  0.35493766  0.85480359    -0.16100
C197        C  0.25642705  0.25851343  0.47721911     0.13900
C198        C  0.21556698  0.25538031  0.49166901     0.00900
C199        C  0.17078831  0.26780210  0.46219984     0.15900
C200        C  0.16663889  0.28250359  0.41876827     0.25300
C201        C  0.20725370  0.28510107  0.40354069    -0.41100
C202        C  0.25235535  0.27310904  0.43368007     0.32300
C203        C  0.21989582  0.23985127  0.53798330     0.01000
F204        F  0.13042910  0.26472476  0.47463846    -0.13400
F205        F  0.29262539  0.27526643  0.42088724    -0.13900
C206        C  0.20930431  0.25542682  0.57462009     0.15900
C207        C  0.21531457  0.24162504  0.61907103     0.25300
C208        C  0.23251664  0.21170090  0.62844216    -0.41000
C209        C  0.24148438  0.19575536  0.59090785     0.32200
C210        C  0.23530653  0.20971157  0.54627516     0.14000
F211        F  0.19482616  0.28459956  0.56806098    -0.13400
F212        F  0.25757333  0.16691456  0.59766388    -0.13900
F213        F  0.20530908  0.25811481  0.65333566    -0.16200
F214        F  0.24454611  0.19375650  0.51108269    -0.14700
F215        F  0.30052596  0.24756793  0.50553504    -0.14700
F216        F  0.12204870  0.29273352  0.39040244    -0.16100
C217        C  0.24163344  0.22168731  0.09421302     0.13900
C218        C  0.22265706  0.23497156  0.04806575     0.00900
C219        C  0.19121139  0.25982021  0.04094648     0.15900
C220        C  0.18219705  0.27273177  0.08016450     0.25300
C221        C  0.20320337  0.26035957  0.12658443    -0.41100
C222        C  0.23156093  0.23421443  0.13323495     0.32300
C223        C  0.23721972  0.22399609  0.00775696     0.01000
F224        F  0.17034976  0.27205031  0.99619733    -0.13400
F225        F  0.25282168  0.22237725  0.17822113    -0.13900
C226        C  0.22929158  0.19391302  0.99270168     0.15900
C227        C  0.23992949  0.18419703  0.95242792     0.25300
C228        C  0.25788257  0.20459801  0.92597679    -0.41000
C229        C  0.26759384  0.23441863  0.94222223     0.32200
C230        C  0.25783756  0.24395488  0.98315077     0.14000
F231        F  0.20882182  0.17430139  0.01541736    -0.13400
F232        F  0.28602130  0.25437767  0.91821890    -0.13900
F233        F  0.22945980  0.15526922  0.93748067    -0.16200
F234        F  0.26794700  0.27283010  0.99850692    -0.14700
F235        F  0.27235911  0.19781985  0.10214086    -0.14700
F236        F  0.15428173  0.29789382  0.07324276    -0.16100
C237        C  0.42579262  0.26771021  0.73604969     0.13900
C238        C  0.46827538  0.26994599  0.77727183     0.00900
C239        C  0.46791772  0.25865050  0.82187102     0.15900
C240        C  0.42624074  0.24406352  0.82447770     0.25300
C241        C  0.38488723  0.24046299  0.78248189    -0.41100
C242        C  0.38460214  0.25293483  0.73857728     0.32300
C243        C  0.51387954  0.28156743  0.77233794     0.01000
F244        F  0.50890659  0.25992845  0.86199771    -0.13400
F245        F  0.34492263  0.24959706  0.69753321    -0.13900
C246        C  0.53756158  0.30706470  0.79824854     0.15900
C247        C  0.58161861  0.31710908  0.79450353     0.25300
C248        C  0.60296151  0.30147935  0.76529160    -0.41000
C249        C  0.57834762  0.27652239  0.73826494     0.32200
C250        C  0.53422778  0.26669814  0.74169657     0.14000
F251        F  0.51847348  0.32185138  0.82788313    -0.13400
F252        F  0.59782892  0.26106450  0.70956098    -0.13900
F253        F  0.60499010  0.34084170  0.82197359    -0.16200
F254        F  0.51241896  0.24175978  0.71671544    -0.14700
F255        F  0.42494072  0.27884163  0.69282809    -0.14700
F256        F  0.42751273  0.23156341  0.86694807    -0.16100
C257        C  0.03583870  0.22416094  0.73563078     0.13900
C258        C  0.01872147  0.21527180  0.77255556     0.00900
C259        C  0.04540847  0.19426721  0.80706678     0.15900
C260        C  0.08983125  0.18315056  0.80585539     0.25300
C261        C  0.10828839  0.19293828  0.76990720    -0.41100
C262        C  0.08010686  0.21309599  0.73417761     0.32300
C263        C  0.97569541  0.23037048  0.77752615     0.01000
F264        F  0.02989526  0.18594390  0.84366002    -0.13400
F265        F  0.09614003  0.22299428  0.69873627    -0.13900
C266        C  0.93011749  0.21594806  0.76377430     0.15900
C267        C  0.88878156  0.23162398  0.76466480     0.25300
C268        C  0.89259600  0.26203921  0.77949568    -0.41000
C269        C  0.93899365  0.27587010  0.79489569     0.32200
C270        C  0.97997692  0.26018182  0.79394109     0.14000
F271        F  0.92535760  0.18707385  0.74773220    -0.13400
F272        F  0.94485855  0.30485925  0.81011171    -0.13900
F273        F  0.84483012  0.21741090  0.74885704    -0.16200
F274        F  0.02399889  0.27431712  0.80831120    -0.14700
F275        F  0.01038477  0.24451294  0.70195718    -0.14700
F276        F  0.11629810  0.16453701  0.84199004    -0.16100
C277        C  0.71930067  0.23214720  0.58175480     0.13900
C278        C  0.71744810  0.24813565  0.54009800     0.00900
C279        C  0.72100531  0.27979769  0.54261335     0.15900
C280        C  0.72790519  0.29504311  0.58643216     0.25300
C281        C  0.73024928  0.27893052  0.62820289    -0.41100
C282        C  0.72536737  0.24731556  0.62513679     0.32300
C283        C  0.71414396  0.23170388  0.49484259     0.01000
F284        F  0.71766953  0.29594889  0.50248424    -0.13400
F285        F  0.72919046  0.23076007  0.66504021    -0.13900
C286        C  0.67541988  0.21161699  0.47235494     0.15900
C287        C  0.67174833  0.19723274  0.42868142     0.25300
C288        C  0.70654520  0.20284383  0.40656954    -0.41000
C289        C  0.74633630  0.22187841  0.43025400     0.32200
C290        C  0.75022713  0.23597418  0.47399149     0.14000
F291        F  0.63986689  0.20701620  0.49144612    -0.13400
F292        F  0.78116462  0.22729520  0.41049060    -0.13900
F293        F  0.63237228  0.17950477  0.40636954    -0.16200
F294        F  0.78929728  0.25399684  0.49597338    -0.14700
F295        F  0.71745533  0.20162518  0.58109511    -0.14700
F296        F  0.73180420  0.32547183  0.58789311    -0.16100
C297        C  0.69964777  0.21426664  0.03471655     0.13900
C298        C  0.73845407  0.23460592  0.04174214     0.00900
C299        C  0.76555144  0.24437334  0.08895026     0.15900
C300        C  0.75336380  0.23463815  0.12829401     0.25300
C301        C  0.71435776  0.21441612  0.12134643    -0.41100
C302        C  0.68806850  0.20396857  0.07426676     0.32300
C303        C  0.74852780  0.24736022  0.99976640     0.01000
F304        F  0.80436588  0.26312315  0.09704566    -0.13400
F305        F  0.65080702  0.18404432  0.06643355    -0.13900
C306        C  0.74864803  0.27868484  0.99416173     0.15900
C307        C  0.75501948  0.29120046  0.95353817     0.25300
C308        C  0.75977365  0.27266623  0.91656329    -0.41000
C309        C  0.76150127  0.24128166  0.92284521     0.32200
C310        C  0.75621035  0.22872429  0.96437787     0.14000
F311        F  0.74014328  0.29730553  0.02696333    -0.13400
F312        F  0.76574764  0.22272588  0.88785977    -0.13900
F313        F  0.75493615  0.32165398  0.94979588    -0.16200
F314        F  0.75771006  0.19837786  0.96963014    -0.14700
F315        F  0.67213155  0.20494679  0.98942839    -0.14700
F316        F  0.78120241  0.24404223  0.17345749    -0.16100
C317        C  0.92068696  0.22225821  0.30492557     0.13900
C318        C  0.93899123  0.21020759  0.27055738     0.00900
C319        C  0.91446378  0.18620715  0.24132728     0.15900
C320        C  0.87044817  0.17559607  0.24411473     0.25300
C321        C  0.84971674  0.18914329  0.27602586    -0.41100
C322        C  0.87656671  0.21177001  0.30785701     0.32300
C323        C  0.98050251  0.22489070  0.26168861     0.01000
F324        F  0.93135383  0.17445220  0.20757679    -0.13400
F325        F  0.85906713  0.22491567  0.34012121    -0.13900
C326        C  0.02604932  0.21067851  0.27362168     0.15900
C327        C  0.06580872  0.22589108  0.26793030     0.25300
C328        C  0.06036582  0.25556668  0.24979654    -0.41000
C329        C  0.01353486  0.26883912  0.23514167     0.32200
C330        C  0.97425653  0.25368021  0.24121948     0.14000
F331        F  0.03240247  0.18248417  0.29238023    -0.13400
F332        F  0.00566278  0.29699485  0.21632074    -0.13900
F333        F  0.10981713  0.21189907  0.28172659    -0.16200
F334        F  0.92993560  0.26732949  0.22760298    -0.14700
F335        F  0.94459903  0.24517323  0.33419981    -0.14700
F336        F  0.84674927  0.15337630  0.21306824    -0.16100
C337        C  0.48016810  0.25024934  0.21506163     0.13900
C338        C  0.48541197  0.27180912  0.25153209     0.00900
C339        C  0.53255949  0.28004313  0.28220622     0.15900
C340        C  0.57376928  0.26567598  0.27819395     0.25300
C341        C  0.56826204  0.24285813  0.24355741    -0.41100
C342        C  0.52127672  0.23575689  0.21130603     0.32300
C343        C  0.44157099  0.28293614  0.26077131     0.01000
F344        F  0.53842538  0.30053599  0.31803564    -0.13400
F345        F  0.51510686  0.21347491  0.17807822    -0.13900
C346        C  0.42070427  0.26537095  0.28807209     0.15900
C347        C  0.37647702  0.27384071  0.29298227     0.25300
C348        C  0.35204698  0.30016533  0.27059741    -0.41000
C349        C  0.37447674  0.31853606  0.24521910     0.32200
C350        C  0.41876658  0.30989458  0.24027042     0.14000
F351        F  0.44243424  0.23933734  0.30858606    -0.13400
F352        F  0.35194793  0.34375504  0.22219321    -0.13900
F353        F  0.35672809  0.25566478  0.31832737    -0.16200
F354        F  0.43822283  0.32710568  0.21350708    -0.14700
F355        F  0.43497856  0.24203491  0.18488185    -0.14700
F356        F  0.61867710  0.27212905  0.31084428    -0.16100
C357        C  0.41855678  0.10617536  0.97150421     0.13900
C358        C  0.46026095  0.12458523  0.98439338     0.00900
C359        C  0.46678288  0.14384823  0.94930636     0.15900
C360        C  0.43160965  0.14536895  0.90262396     0.25300
C361        C  0.38875374  0.12772352  0.88992586    -0.41100
C362        C  0.38316558  0.10769169  0.92486572     0.32300
C363        C  0.49648876  0.12445356  0.03464569     0.01000
F364        F  0.50626386  0.16234797  0.96100051    -0.13400
F365        F  0.34285504  0.09000653  0.91446227    -0.13900
C366        C  0.54554492  0.11739778  0.04294108     0.15900
C367        C  0.58069099  0.11977184  0.08947372     0.25300
C368        C  0.56762896  0.12948035  0.12908925    -0.41000
C369        C  0.51797447  0.13545624  0.12091056     0.32200
C370        C  0.48281960  0.13291248  0.07419704     0.14000
F371        F  0.55963693  0.10864878  0.00559144    -0.13400
F372        F  0.50342748  0.14448304  0.15781218    -0.13900
F373        F  0.62790152  0.11375067  0.09499637    -0.16200
F374        F  0.43566576  0.14004174  0.06720992    -0.14700
F375        F  0.41187545  0.08686612  0.00434076    -0.14700
F376        F  0.43848298  0.16541700  0.87085028    -0.16100
C377        C  0.25612457  0.46218947  0.30180386     0.13900
C378        C  0.21554492  0.47904035  0.30256679     0.00900
C379        C  0.17321186  0.46355244  0.30194997     0.15900
C380        C  0.17080120  0.43212753  0.29835136     0.25300
C381        C  0.21001011  0.41561160  0.29371950    -0.41100
C382        C  0.25300382  0.43086987  0.29638217     0.32300
C383        C  0.21554011  0.51251421  0.29860746     0.01000
F384        F  0.13271851  0.47887879  0.30102393    -0.13400
F385        F  0.29156528  0.41550213  0.29240043    -0.13900
C386        C  0.22857669  0.52605893  0.26162818     0.15900
C387        C  0.22577774  0.55719654  0.25517096     0.25300
C388        C  0.20802012  0.57556499  0.28424462    -0.41000
C389        C  0.19534554  0.56226380  0.32154942     0.32200
C390        C  0.19981748  0.53106854  0.32919401     0.14000
F391        F  0.24116906  0.50897726  0.22955863    -0.13400
F392        F  0.17827200  0.57944775  0.35031700    -0.13900
F393        F  0.23697804  0.56910533  0.21787378    -0.16200
F394        F  0.18821947  0.51897904  0.36610846    -0.14700
F395        F  0.29835622  0.47620420  0.30461064    -0.14700
F396        F  0.12838795  0.41810910  0.29497206    -0.16100
C397        C  0.72266655  0.46075013  0.67291932     0.13900
C398        C  0.71558480  0.48125753  0.70633262     0.00900
C399        C  0.71068517  0.47021830  0.74895165     0.15900
C400        C  0.71537441  0.43955755  0.75950148     0.25300
C401        C  0.72546457  0.41885001  0.72764707    -0.41100
C402        C  0.72743757  0.42977129  0.68337092     0.32300
C403        C  0.71941591  0.51429978  0.70083546     0.01000
F404        F  0.70469192  0.48949373  0.78228576    -0.13400
F405        F  0.73523904  0.41069940  0.65077610    -0.13900
C406        C  0.68082530  0.53345673  0.69989749     0.15900
C407        C  0.68831973  0.56460306  0.70605608     0.25300
C408        C  0.73473123  0.57721000  0.71349635    -0.41000
C409        C  0.77241979  0.55805072  0.71128743     0.32200
C410        C  0.76477218  0.52698189  0.70509461     0.14000
F411        F  0.63646116  0.52178533  0.69535858    -0.13400
F412        F  0.81800379  0.56891395  0.71905501    -0.13900
F413        F  0.65060341  0.58223526  0.70661538    -0.16200
F414        F  0.80303194  0.50895769  0.70746200    -0.14700
F415        F  0.72613355  0.47085491  0.63074954    -0.14700
F416        F  0.71283152  0.43062554  0.80266203    -0.16100
C417        C  0.91593591  0.60444293  0.95505359     0.13900
C418        C  0.95904260  0.62149277  0.97003553     0.00900
C419        C  0.96804451  0.64146778  0.93717086     0.15900
C420        C  0.93320678  0.64556196  0.89074168     0.25300
C421        C  0.88866030  0.62958098  0.87625366    -0.41100
C422        C  0.88122883  0.60823083  0.90859048     0.32300
C423        C  0.99274902  0.62047309  0.02107364     0.01000
F424        F  0.00941617  0.65836943  0.95116037    -0.13400
F425        F  0.83958539  0.59162157  0.89601058    -0.13900
C426        C  0.04001691  0.60878533  0.03283386     0.15900
C427        C  0.07365616  0.61119726  0.08019737     0.25300
C428        C  0.06073772  0.62576240  0.11675730    -0.41000
C429        C  0.01214426  0.63572721  0.10519977     0.32200
C430        C  0.97862461  0.63313496  0.05785338     0.14000
F431        F  0.05394690  0.59567220  0.99805247    -0.13400
F432        F  0.99736661  0.64924382  0.13903602    -0.13900
F433        F  0.11940173  0.60024191  0.08953252    -0.16200
F434        F  0.93295071  0.64450010  0.04728684    -0.14700
F435        F  0.90686801  0.58467828  0.98602291    -0.14700
F436        F  0.94191356  0.66656932  0.86132187    -0.16100
C437        C  0.27139176  0.96456627  0.69949576     0.13900
C438        C  0.22841334  0.97894136  0.69941264     0.00900
C439        C  0.18831728  0.96114062  0.69876230     0.15900
C440        C  0.19260018  0.92981375  0.70268981     0.25300
C441        C  0.23673372  0.91562058  0.70643574    -0.41100
C442        C  0.27538657  0.93312390  0.70265081     0.32300
C443        C  0.22759074  0.01210187  0.70657932     0.01000
F444        F  0.14579134  0.97426835  0.69700707    -0.13400
F445        F  0.31881021  0.92011503  0.70722912    -0.13900
C446        C  0.23848511  0.03242197  0.67512799     0.15900
C447        C  0.24174657  0.06342992  0.68509869     0.25300
C448        C  0.23330429  0.07467929  0.72619346    -0.41000
C449        C  0.22116246  0.05438222  0.75685845     0.32200
C450        C  0.21874283  0.02348438  0.74738501     0.14000
F451        F  0.24646629  0.02219910  0.63506379    -0.13400
F452        F  0.21519448  0.06419820  0.79815790    -0.13900
F453        F  0.25358972  0.08245243  0.65488312    -0.16200
F454        F  0.21052349  0.00446695  0.77979866    -0.14700
F455        F  0.31104985  0.98104834  0.70096709    -0.14700
F456        F  0.15446431  0.91339127  0.70552244    -0.16100
C457        C  0.22397413  0.77885017  0.53118770     0.13900
C458        C  0.22128019  0.74718016  0.52804864     0.00900
C459        C  0.22643531  0.73051193  0.56999162     0.15900
C460        C  0.23353064  0.74510792  0.61397426     0.25300
C461        C  0.23715610  0.77667924  0.61739380    -0.41100
C462        C  0.23264847  0.79346305  0.57574749     0.32300
C463        C  0.21410536  0.73148133  0.48141045     0.01000
F464        F  0.22606925  0.69998070  0.56871829    -0.13400
F465        F  0.23534378  0.82393352  0.57796906    -0.13900
C466        C  0.24613252  0.73703505  0.45617845     0.15900
C467        C  0.23817970  0.72361817  0.41110923     0.25300
C468        C  0.19838533  0.70402117  0.39053770    -0.41000
C469        C  0.16776123  0.69715213  0.41681323     0.32200
C470        C  0.17536633  0.71092987  0.46178211     0.14000
F471        F  0.28511319  0.75563138  0.47512874    -0.13400
F472        F  0.12862015  0.67871733  0.39756442    -0.13900
F473        F  0.26908240  0.73015111  0.38708379    -0.16200
F474        F  0.14350989  0.70528467  0.48506119    -0.14700
F475        F  0.21748266  0.79562446  0.49092301    -0.14700
F476        F  0.23862108  0.72820743  0.65383301    -0.16100
C477        C  0.23132021  0.75430451  0.06540374     0.13900
C478        C  0.22490285  0.73588457  0.02485711     0.00900
C479        C  0.20617457  0.70676347  0.02381425     0.15900
C480        C  0.19337333  0.69628154  0.06254069     0.25300
C481        C  0.19926574  0.71481801  0.10330222    -0.41100
C482        C  0.21854294  0.74399377  0.10415603     0.32300
C483        C  0.23229662  0.74847588  0.98153712     0.01000
F484        F  0.19901903  0.68874064  0.98463498    -0.13400
F485        F  0.22593955  0.76254007  0.14276857    -0.13900
C486        C  0.26663722  0.73636619  0.96293326     0.15900
C487        C  0.27230145  0.74885984  0.92141444     0.25300
C488        C  0.24365083  0.77362250  0.89817764    -0.41000
C489        C  0.20898440  0.78528478  0.91699205     0.32200
C490        C  0.20349505  0.77283776  0.95805136     0.14000
F491        F  0.29500730  0.71278576  0.98531109    -0.13400
F492        F  0.17900212  0.80832142  0.89492709    -0.13900
F493        F  0.30606593  0.73702647  0.90444824    -0.16200
F494        F  0.16892715  0.78420777  0.97437714    -0.14700
F495        F  0.25002166  0.78245301  0.06735135    -0.14700
F496        F  0.17532318  0.66791638  0.05992038    -0.16100
C497        C  0.47751311  0.74654188  0.80065315     0.13900
C498        C  0.47206899  0.72618014  0.76255504     0.00900
C499        C  0.42523892  0.71984646  0.72953099     0.15900
C500        C  0.38438446  0.73441065  0.73357886     0.25300
C501        C  0.38992077  0.75595836  0.77023784    -0.41100
C502        C  0.43677704  0.76161358  0.80415328     0.32300
C503        C  0.51568291  0.71339623  0.75531480     0.01000
F504        F  0.41937785  0.70038408  0.69232127    -0.13400
F505        F  0.44316055  0.78219356  0.83998422    -0.13900
C506        C  0.54047551  0.68910480  0.78332928     0.15900
C507        C  0.58461008  0.67911845  0.77999448     0.25300
C508        C  0.60523645  0.69370013  0.74892535    -0.41000
C509        C  0.57850121  0.71699847  0.71883096     0.32200
C510        C  0.53413891  0.72668893  0.72204739     0.14000
F511        F  0.52266753  0.67566417  0.81511648    -0.13400
F512        F  0.59609953  0.73135437  0.68766704    -0.13900
F513        F  0.60814072  0.65614838  0.80912310    -0.16200
F514        F  0.51018738  0.75004405  0.69422615    -0.14700
F515        F  0.52258851  0.75273234  0.83318989    -0.14700
F516        F  0.33988869  0.72910446  0.69946516    -0.16100
C517        C  0.02866296  0.77079880  0.71596973     0.13900
C518        C  0.00473508  0.78891638  0.73995830     0.00900
C519        C  0.02684451  0.81607884  0.76112762     0.15900
C520        C  0.07334337  0.82404233  0.76089558     0.25300
C521        C  0.09873248  0.80479442  0.73982140    -0.41100
C522        C  0.07509121  0.77860266  0.71597034     0.32300
C523        C  0.95873591  0.77798774  0.74558747     0.01000
F524        F  0.00394966  0.83448764  0.78319984    -0.13400
F525        F  0.09773054  0.75986717  0.69406278    -0.13900
C526        C  0.95698149  0.77192943  0.79200767     0.15900
C527        C  0.91708398  0.75636099  0.79707967     0.25300
C528        C  0.87868151  0.74653444  0.75581876    -0.41000
C529        C  0.87898754  0.75434253  0.70962424     0.32200
C530        C  0.91841761  0.77005610  0.70453871     0.14000
F531        F  0.99553049  0.77908316  0.83234490    -0.13400
F532        F  0.84175256  0.74556499  0.66916540    -0.13900
F533        F  0.91780722  0.74887295  0.84200816    -0.16200
F534        F  0.91818969  0.77641495  0.65934878    -0.14700
F535        F  0.00831148  0.74449185  0.69491932    -0.14700
F536        F  0.09480518  0.84951732  0.78422588    -0.16100
C537        C  0.73735340  0.02485381  0.28158175     0.13900
C538        C  0.72042760  0.01200501  0.31650334     0.00900
C539        C  0.70241056  0.03120075  0.34453536     0.15900
C540        C  0.69834258  0.06226094  0.33540772     0.25300
C541        C  0.71369707  0.07476119  0.29920689    -0.41100
C542        C  0.73481782  0.05581986  0.27365738     0.32300
C543        C  0.71682603  0.97860865  0.31896471     0.01000
F544        F  0.68772697  0.01981905  0.37999076    -0.13400
F545        F  0.74949114  0.06687827  0.23796238    -0.13900
C546        C  0.75629944  0.96027338  0.31938073     0.15900
C547        C  0.74904917  0.92966486  0.30785079     0.25300
C548        C  0.70285554  0.91651208  0.29811357    -0.41000
C549        C  0.66490923  0.93397257  0.30333012     0.32200
C550        C  0.67155017  0.96485337  0.31289503     0.14000
F551        F  0.80127682  0.97240140  0.32814603    -0.13400
F552        F  0.61988750  0.92182808  0.29421162    -0.13900
F553        F  0.78663557  0.91311194  0.30417350    -0.16200
F554        F  0.63234631  0.98165722  0.31161588    -0.14700
F555        F  0.75307120  0.00722292  0.25228674    -0.14700
F556        F  0.67873480  0.08003283  0.36140559    -0.16100
C557        C  0.74209438  0.70822683  0.52909380     0.13900
C558        C  0.71273903  0.73408885  0.51474906     0.00900
C559        C  0.69083363  0.74598141  0.54640369     0.15900
C560        C  0.69928290  0.73306469  0.59192394     0.25300
C561        C  0.73024410  0.70787947  0.60736924    -0.41100
C562        C  0.75074947  0.69522913  0.57490290     0.32300
C563        C  0.70598988  0.74947659  0.46775723     0.01000
F564        F  0.66277891  0.77107487  0.53410398    -0.13400
F565        F  0.78105301  0.67117693  0.58824194    -0.13900
C566        C  0.65880045  0.75491971  0.43425074     0.15900
C567        C  0.65227124  0.77085848  0.39135551     0.25300
C568        C  0.69282461  0.78135020  0.38057932    -0.41000
C569        C  0.74004387  0.77557963  0.41373599     0.32200
C570        C  0.74654623  0.76008348  0.45707704     0.14000
F571        F  0.61893752  0.74405287  0.44248060    -0.13400
F572        F  0.77996679  0.78520065  0.40434057    -0.13900
F573        F  0.60626461  0.77466165  0.35914319    -0.16200
F574        F  0.79253507  0.75589763  0.48906181    -0.14700
F575        F  0.76283668  0.69570613  0.49889211    -0.14700
F576        F  0.67782189  0.74581723  0.62137444    -0.16100
C577        C  0.70836394  0.74921893  0.94047410     0.13900
C578        C  0.73144861  0.73543289  0.98538673     0.00900
C579        C  0.76452240  0.71189250  0.98914427     0.15900
C580        C  0.77361709  0.70178497  0.94796212     0.25300
C581        C  0.75033152  0.71554242  0.90258068    -0.41100
C582        C  0.71771394  0.73948733  0.89946251     0.32300
C583        C  0.72310156  0.74722067  0.02865567     0.01000
F584        F  0.78768812  0.69862875  0.03265100    -0.13400
F585        F  0.69320386  0.75281413  0.85633263    -0.13900
C586        C  0.68029880  0.74008849  0.03796821     0.15900
C587        C  0.67110330  0.75341780  0.07715707     0.25300
C588        C  0.70426140  0.77442929  0.10675950    -0.41000
C589        C  0.74731025  0.78119402  0.09735372     0.32200
C590        C  0.75664398  0.76759986  0.05881172     0.14000
F591        F  0.64728644  0.72053024  0.00873971    -0.13400
F592        F  0.78089603  0.80075580  0.12590970    -0.13900
F593        F  0.62923599  0.74660106  0.08515038    -0.16200
F594        F  0.79804433  0.77484270  0.05017451    -0.14700
F595        F  0.67674290  0.77227127  0.93645475    -0.14700
F596        F  0.80512769  0.67860568  0.95252771    -0.16100
C597        C  0.90531552  0.81195947  0.22526980     0.13900
C598        C  0.92724033  0.78523923  0.24816880     0.00900
C599        C  0.90719039  0.77052095  0.27918982     0.15900
C600        C  0.86385590  0.78073618  0.28399904     0.25300
C601        C  0.83983936  0.80619389  0.25845533    -0.41100
C602        C  0.86204470  0.82247359  0.23057348     0.32300
C603        C  0.96793692  0.77073965  0.23675586     0.01000
F604        F  0.92849116  0.74526793  0.30316320    -0.13400
F605        F  0.83950849  0.84687744  0.20474384    -0.13900
C606        C  0.01402354  0.78456387  0.24828132     0.15900
C607        C  0.05361053  0.76859126  0.24326912     0.25300
C608        C  0.04762496  0.73855623  0.22696801    -0.41000
C609        C  0.00087136  0.72549858  0.21301372     0.32200
C610        C  0.96142530  0.74150033  0.21726887     0.14000
F611        F  0.02146384  0.81273003  0.26732315    -0.13400
F612        F  0.99376173  0.69664941  0.19700858    -0.13900
F613        F  0.09854680  0.78155867  0.25820084    -0.16200
F614        F  0.91693979  0.72797459  0.20394481    -0.14700
F615        F  0.92364414  0.82657912  0.19490891    -0.14700
F616        F  0.84391055  0.76477493  0.31176135    -0.16100
C617        C  0.51364730  0.71973814  0.26474954     0.13900
C618        C  0.46624353  0.73159511  0.24423600     0.00900
C619        C  0.45876475  0.75633487  0.21287984     0.15900
C620        C  0.49813230  0.77023015  0.20477664     0.25300
C621        C  0.54616361  0.75952078  0.22721943    -0.41100
C622        C  0.55319550  0.73343377  0.25610787     0.32300
C623        C  0.42437786  0.71900339  0.25587831     0.01000
F624        F  0.41310826  0.76747390  0.19057516    -0.13400
F625        F  0.59873282  0.72226378  0.27869491    -0.13900
C626        C  0.39591047  0.73796368  0.27365204     0.15900
C627        C  0.35221133  0.72764058  0.27768177     0.25300
C628        C  0.33592313  0.69799923  0.26400796    -0.41000
C629        C  0.36662687  0.67833029  0.25014252     0.32200
C630        C  0.41032376  0.68877210  0.24599485     0.14000
F631        F  0.40946459  0.76701294  0.28525120    -0.13400
F632        F  0.35330062  0.64928405  0.23835297    -0.13900
F633        F  0.32425450  0.74746385  0.29155996    -0.16200
F634        F  0.43721408  0.66980601  0.22923524    -0.14700
F635        F  0.52212642  0.69587064  0.29524559    -0.14700
F636        F  0.48905068  0.79477188  0.17588853    -0.16100
C637        C  0.48474034  0.86104195  0.05393690     0.13900
C638        C  0.49262408  0.88019097  0.01940733     0.00900
C639        C  0.53717349  0.89597387  0.03192062     0.15900
C640        C  0.57367322  0.89176952  0.07763944     0.25300
C641        C  0.56573664  0.87218652  0.11175796    -0.41100
C642        C  0.52055528  0.85746031  0.09965239     0.32300
C643        C  0.45466698  0.88197613  0.97009901     0.01000
F644        F  0.54545777  0.91516807  0.99980225    -0.13400
F645        F  0.51240761  0.83770157  0.13088100    -0.13900
C646        C  0.40626819  0.88906905  0.96503563     0.15900
C647        C  0.36812390  0.88393983  0.92115751     0.25300
C648        C  0.37751326  0.87180502  0.88102121    -0.41000
C649        C  0.42649994  0.86741555  0.88471265     0.32200
C650        C  0.46473382  0.87234345  0.92897919     0.14000
F651        F  0.39564634  0.89952450  0.00358125    -0.13400
F652        F  0.43726895  0.85611707  0.84675736    -0.13900
F653        F  0.32167011  0.88976812  0.91863042    -0.16200
F654        F  0.51113791  0.86542937  0.93260058    -0.14700
F655        F  0.44321968  0.84436436  0.04237764    -0.14700
F656        F  0.61683606  0.90661080  0.08849045    -0.16100
loop_ 
_geom_bond_atom_site_label_1 
_geom_bond_atom_site_label_2 
_geom_bond_distance 
_geom_bond_site_symmetry_2 
_ccdc_geom_bond_type 
O1           C16   1.263       .  A
O1           Al9   1.894       .  S
C2           O12   1.257       .  A
C2            O3   1.267       .  A
C2          C641   1.483       .  S
O3           Al5   1.933       .  S
O4            C6   1.255       .  A
O4           Al5   1.891       .  S
Al5          O13   1.900       .  S
Al5          O15   1.951       .  S
Al5          O14   1.787       .  S
C6           O19   1.262       .  A
C6          C621   1.492       .  S
O7           C17   1.267       .  A
O7           Al9   1.913       .  S
O8           C21   1.262       .  A
O8          Al18   1.909       .  S
Al9          O22   1.916       .  S
Al9          O19   1.936       .  S
Al9          O14   1.788       .  S
O10          C17   1.264       .  A
O10         Al18   1.904       .  S
O11          C20   1.261       .  A
O11         Al18   1.906       .  S
O12         Al18   1.886       .  S
O13          C20   1.259       .  A
O14         Al18   1.792       .  S
O15          C16   1.273       .  A
C16         C568   1.486       .  S
C17         C588   1.476       .  S
C20         C548   1.477       .  S
C21          O22   1.263       .  A
C21         C601   1.484       .  S
O23          C38   1.260       .  A
O23         Al31   1.876       .  S
C24          O34   1.261       .  A
C24          O25   1.267       .  A
C24         C648   1.488       .  S
O25         Al27   1.935       .  S
O26          C28   1.255       .  A
O26         Al27   1.893       .  S
Al27         O35   1.911       .  S
Al27         O37   1.945       .  S
Al27         O36   1.792       .  S
C28          O41   1.259       .  A
C28         C501   1.477       .  S
O29          C39   1.263       .  A
O29         Al31   1.912       .  S
O30          C43   1.264       .  A
O30         Al40   1.911       .  S
Al31         O44   1.921       .  S
Al31         O41   1.919       .  S
Al31         O36   1.792       .  S
O32          C39   1.260       .  A
O32         Al40   1.895       .  S
O33          C42   1.257       .  A
O33         Al40   1.894       .  S
O34         Al40   1.884       .  S
O35          C42   1.260       .  A
O36         Al40   1.786       .  S
O37          C38   1.271       .  A
C38         C461   1.477       .  S
C39         C488   1.481       .  S
C42         C441   1.479       .  S
C43          O44   1.265       .  A
C43         C521   1.487       .  S
O45          C60   1.263       .  A
O45         Al53   1.905       .  S
C46          O56   1.267       .  A
C46          O47   1.264       .  A
C46         C421   1.491       .  S
O47         Al49   1.914       .  S
O48          C50   1.260       .  A
O48         Al49   1.896       .  S
Al49         O57   1.903       .  S
Al49         O59   1.902       .  S
Al49         O58   1.786       .  S
C50          O63   1.263       .  A
C50         C581   1.483       .  S
O51          C61   1.262       .  A
O51         Al53   1.928       .  S
O52          C65   1.272       .  A
O52         Al62   1.927       .  S
Al53         O66   1.914       .  S
Al53         O63   1.913       .  S
Al53         O58   1.781       .  S
O54          C61   1.257       .  A
O54         Al62   1.901       .  S
O55          C64   1.264       .  A
O55         Al62   1.928       .  S
O56         Al62   1.918       .  S
O57          C64   1.260       .  A
O58         Al62   1.786       .  S
O59          C60   1.259       .  A
C60         C508   1.490       .  S
C61         C528   1.478       .  S
C64         C408   1.492       .  S
C65          O66   1.267       .  A
C65         C561   1.494       .  S
O67          C82   1.261       .  A
O67         Al75   1.901       .  S
C68          O78   1.264       .  A
C68          O69   1.264       .  A
C68         C428   1.493       .  S
O69         Al71   1.920       .  S
O70          C72   1.257       .  A
O70         Al71   1.878       .  S
Al71         O79   1.892       .  S
Al71         O81   1.911       .  S
Al71         O80   1.787       .  S
C72          O85   1.265       .  A
C72         C481   1.485       .  S
O73          C83   1.263       .  A
O73         Al75   1.922       .  S
O74          C87   1.269       .  A
O74         Al84   1.915       .  S
Al75         O88   1.903       .  S
Al75         O85   1.919       .  S
Al75         O80   1.786       .  S
O76          C83   1.258       .  A
O76         Al84   1.900       .  S
O77          C86   1.263       .  A
O77         Al84   1.927       .  S
O78         Al84   1.906       .  S
O79          C86   1.258       .  A
O80         Al84   1.788       .  S
O81          C82   1.261       .  A
C82         C628   1.489       .  S
C83         C608   1.483       .  S
C86         C388   1.480       .  S
C87          O88   1.265       .  A
C87         C468   1.477       .  S
O89         C104   1.263       .  A
O89         Al97   1.913       .  S
C90         O100   1.262       .  A
C90          O91   1.260       .  A
C90         C368   1.493       .  S
O91         Al93   1.912       .  S
O92          C94   1.259       .  A
O92         Al93   1.886       .  S
Al93        O101   1.886       .  S
Al93        O103   1.897       .  S
Al93        O102   1.787       .  S
C94         O107   1.265       .  A
C94         C301   1.475       .  S
O95         C105   1.263       .  A
O95         Al97   1.920       .  S
O96         C109   1.268       .  A
O96        Al106   1.918       .  S
Al97        O110   1.903       .  S
Al97        O107   1.918       .  S
Al97        O102   1.786       .  S
O98         C105   1.258       .  A
O98        Al106   1.894       .  S
O99         C108   1.266       .  A
O99        Al106   1.933       .  S
O100       Al106   1.914       .  S
O101        C108   1.259       .  A
O102       Al106   1.787       .  S
O103        C104   1.258       .  A
C104        C321   1.490       .  S
C105        C341   1.473       .  S
C108        C541   1.482       .  S
C109        O110   1.264       .  A
C109        C288   1.483       .  S
O111        C126   1.262       .  A
O111       Al119   1.895       .  S
C112        O122   1.266       .  A
C112        O113   1.266       .  A
C112        C361   1.492       .  S
O113       Al115   1.923       .  S
O114        C116   1.254       .  A
O114       Al115   1.872       .  S
Al115       O123   1.895       .  S
Al115       O125   1.919       .  S
Al115       O124   1.784       .  S
C116        O129   1.263       .  A
C116        C228   1.473       .  S
O117        C127   1.260       .  A
O117       Al119   1.920       .  S
O118        C131   1.274       .  A
O118       Al128   1.926       .  S
Al119       O132   1.925       .  S
Al119       O129   1.919       .  S
Al119       O124   1.778       .  S
O120        C127   1.257       .  A
O120       Al128   1.899       .  S
O121        C130   1.262       .  A
O121       Al128   1.928       .  S
O122       Al128   1.909       .  S
O123        C130   1.259       .  A
O124       Al128   1.783       .  S
O125        C126   1.264       .  A
C126        C261   1.487       .  S
C127        C241   1.468       .  S
C130        C448   1.483       .  S
C131        O132   1.270       .  A
C131        C208   1.500       .  S
O133        C148   1.260       .  A
O133       Al141   1.877       .  S
C134        O144   1.260       .  A
C134        O135   1.273       .  A
C134        C181   1.492       .  S
O135       Al137   1.956       .  S
O136        C138   1.256       .  A
O136       Al137   1.886       .  S
Al137       O145   1.928       .  S
Al137       O147   1.952       .  S
Al137       O146   1.790       .  S
C138        O151   1.258       .  A
C138        C268   1.487       .  S
O139        C149   1.261       .  A
O139       Al141   1.909       .  S
O140        C153   1.265       .  A
O140       Al150   1.903       .  S
Al141       O154   1.916       .  S
Al141       O151   1.912       .  S
Al141       O146   1.789       .  S
O142        C149   1.257       .  A
O142       Al150   1.886       .  S
O143        C152   1.254       .  A
O143       Al150   1.884       .  S
O144       Al150   1.878       .  S
O145        C152   1.262       .  A
O146       Al150   1.787       .  S
O147        C148   1.272       .  A
C148        C281   1.487       .  S
C149        C308   1.476       .  S
C152        C401   1.496       .  S
C153        O154   1.265       .  A
C153        C248   1.477       .  S
O155        C170   1.264       .  A
O155       Al163   1.896       .  S
C156        O166   1.256       .  A
C156        O157   1.266       .  A
C156        C188   1.488       .  S
O157       Al159   1.937       .  S
O158        C160   1.254       .  A
O158       Al159   1.879       .  S
Al159       O167   1.897       .  S
Al159       O169   1.954       .  S
Al159       O168   1.784       .  S
C160        O173   1.262       .  A
C160        C328   1.489       .  S
O161        C171   1.262       .  A
O161       Al163   1.891       .  S
O162        C175   1.262       .  A
O162       Al172   1.908       .  S
Al163       O176   1.921       .  S
Al163       O173   1.934       .  S
Al163       O168   1.793       .  S
O164        C171   1.263       .  A
O164       Al172   1.903       .  S
O165        C174   1.263       .  A
O165       Al172   1.912       .  S
O166       Al172   1.887       .  S
O167        C174   1.260       .  A
O168       Al172   1.788       .  S
O169        C170   1.273       .  A
C170        C201   1.495       .  S
C171        C221   1.458       .  S
C174        C381   1.479       .  S
C175        O176   1.263       .  A
C175        C348   1.492       .  S
C177        C178   1.408       .  A
C177        C182   1.401       .  A
C177        F195   1.358   1_556  S
C178        C183   1.502   1_556  S
C178        C179   1.412       .  A
C179        C180   1.407       .  A
C179        F184   1.357   1_655  S
C180        C181   1.407       .  A
C180        F196   1.355       .  S
C181        C182   1.409       .  A
C182        F185   1.358       .  S
C183        C186   1.412       .  A
C183        C190   1.410   1_655  A
C186        C187   1.402   1_655  A
C186        F191   1.358       .  S
C187        C188   1.404       .  A
C187        F193   1.356       .  S
C188        C189   1.410       .  A
C189        C190   1.407       .  A
C189        F192   1.358       .  S
C190        F194   1.358       .  S
C197        C198   1.407       .  A
C197        C202   1.405       .  A
C197        F215   1.358       .  S
C198        C203   1.495       .  S
C198        C199   1.407       .  A
C199        C200   1.404       .  A
C199        F204   1.358       .  S
C200        C201   1.412       .  A
C200        F216   1.358       .  S
C201        C202   1.412       .  A
C202        F205   1.358       .  S
C203        C206   1.403       .  A
C203        C210   1.409       .  A
C206        C207   1.401       .  A
C206        F211   1.358       .  S
C207        C208   1.416       .  A
C207        F213   1.358       .  S
C208        C209   1.411       .  A
C209        C210   1.407       .  A
C209        F212   1.357       .  S
C210        F214   1.357       .  S
C217        C218   1.407       .  A
C217        C222   1.397       .  A
C217        F235   1.358       .  S
C218        C223   1.476       .  S
C218        C219   1.406       .  A
C219        C220   1.394       .  A
C219        F224   1.358   1_554  S
C220        C221   1.401       .  A
C220        F236   1.358       .  S
C221        C222   1.402       .  A
C222        F225   1.358       .  S
C223        C226   1.402   1_554  A
C223        C230   1.407   1_554  A
C226        C227   1.394       .  A
C226        F231   1.358   1_556  S
C227        C228   1.411       .  A
C227        F233   1.358       .  S
C228        C229   1.404       .  A
C229        C230   1.397       .  A
C229        F232   1.358       .  S
C230        F234   1.358       .  S
C237        C238   1.403       .  A
C237        C242   1.395       .  A
C237        F255   1.358       .  S
C238        C243   1.482       .  S
C238        C239   1.410       .  A
C239        C240   1.404       .  A
C239        F244   1.358       .  S
C240        C241   1.403       .  A
C240        F256   1.358       .  S
C241        C242   1.404       .  A
C242        F245   1.359       .  S
C243        C246   1.404       .  A
C243        C250   1.406       .  A
C246        C247   1.402       .  A
C246        F251   1.358       .  S
C247        C248   1.409       .  A
C247        F253   1.358       .  S
C248        C249   1.406       .  A
C249        C250   1.397       .  A
C249        F252   1.358       .  S
C250        F254   1.358       .  S
C257        C258   1.403       .  A
C257        C262   1.399       .  A
C257        F275   1.358       .  S
C258        C263   1.477   1_455  S
C258        C259   1.401       .  A
C259        C260   1.401       .  A
C259        F264   1.358       .  S
C260        C261   1.414       .  A
C260        F276   1.358       .  S
C261        C262   1.410       .  A
C262        F265   1.358       .  S
C263        C266   1.403       .  A
C263        C270   1.401       .  A
C266        C267   1.403       .  A
C266        F271   1.357       .  S
C267        C268   1.413       .  A
C267        F273   1.358       .  S
C268        C269   1.410       .  A
C269        C270   1.395       .  A
C269        F272   1.355       .  S
C270        F274   1.358   1_655  S
C277        C278   1.403       .  A
C277        C282   1.398       .  A
C277        F295   1.358       .  S
C278        C283   1.491       .  S
C278        C279   1.412       .  A
C279        C280   1.407       .  A
C279        F284   1.358       .  S
C280        C281   1.405       .  A
C280        F296   1.357       .  S
C281        C282   1.412       .  A
C282        F285   1.358       .  S
C283        C286   1.410       .  A
C283        C290   1.405       .  A
C286        C287   1.405       .  A
C286        F291   1.358       .  S
C287        C288   1.407       .  A
C287        F293   1.358       .  S
C288        C289   1.408       .  A
C289        C290   1.399       .  A
C289        F292   1.358       .  S
C290        F294   1.358       .  S
C297        C298   1.407       .  A
C297        C302   1.398       .  A
C297        F315   1.358   1_554  S
C298        C303   1.480   1_554  S
C298        C299   1.405       .  A
C299        C300   1.394       .  A
C299        F304   1.358       .  S
C300        C301   1.408       .  A
C300        F316   1.358       .  S
C301        C302   1.407       .  A
C302        F305   1.358       .  S
C303        C306   1.403       .  A
C303        C310   1.408       .  A
C306        C307   1.390       .  A
C306        F311   1.358   1_556  S
C307        C308   1.409       .  A
C307        F313   1.359       .  S
C308        C309   1.407       .  A
C309        C310   1.401       .  A
C309        F312   1.358       .  S
C310        F314   1.358       .  S
C317        C318   1.405       .  A
C317        C322   1.401       .  A
C317        F335   1.358       .  S
C318        C323   1.478       .  S
C318        C319   1.399       .  A
C319        C320   1.398       .  A
C319        F324   1.358       .  S
C320        C321   1.417       .  A
C320        F336   1.358       .  S
C321        C322   1.410       .  A
C322        F325   1.358       .  S
C323        C326   1.403   1_655  A
C323        C330   1.401       .  A
C326        C327   1.403       .  A
C326        F331   1.357       .  S
C327        C328   1.413       .  A
C327        F333   1.357       .  S
C328        C329   1.413       .  A
C329        C330   1.394   1_455  A
C329        F332   1.357       .  S
C330        F334   1.358       .  S
C337        C338   1.406       .  A
C337        C342   1.401       .  A
C337        F355   1.358       .  S
C338        C343   1.484       .  S
C338        C339   1.405       .  A
C339        C340   1.404       .  A
C339        F344   1.357       .  S
C340        C341   1.406       .  A
C340        F356   1.358       .  S
C341        C342   1.404       .  A
C342        F345   1.358       .  S
C343        C346   1.404       .  A
C343        C350   1.403       .  A
C346        C347   1.401       .  A
C346        F351   1.358       .  S
C347        C348   1.411       .  A
C347        F353   1.358       .  S
C348        C349   1.413       .  A
C349        C350   1.405       .  A
C349        F352   1.358       .  S
C350        F354   1.358       .  S
C357        C358   1.404       .  A
C357        C362   1.402       .  A
C357        F375   1.358   1_556  S
C358        C363   1.488   1_556  S
C358        C359   1.406       .  A
C359        C360   1.401       .  A
C359        F364   1.358       .  S
C360        C361   1.411       .  A
C360        F376   1.358       .  S
C361        C362   1.413       .  A
C362        F365   1.358       .  S
C363        C366   1.403       .  A
C363        C370   1.407       .  A
C366        C367   1.399       .  A
C366        F371   1.358       .  S
C367        C368   1.415       .  A
C367        F373   1.358       .  S
C368        C369   1.410       .  A
C369        C370   1.404       .  A
C369        F372   1.358       .  S
C370        F374   1.358       .  S
C377        C378   1.410       .  A
C377        C382   1.401       .  A
C377        F395   1.358       .  S
C378        C383   1.493       .  S
C378        C379   1.409       .  A
C379        C380   1.401       .  A
C379        F384   1.358       .  S
C380        C381   1.407       .  A
C380        F396   1.358       .  S
C381        C382   1.404       .  A
C382        F385   1.358       .  S
C383        C386   1.408       .  A
C383        C390   1.411       .  A
C386        C387   1.397       .  A
C386        F391   1.358       .  S
C387        C388   1.406       .  A
C387        F393   1.358       .  S
C388        C389   1.406       .  A
C389        C390   1.405       .  A
C389        F392   1.358       .  S
C390        F394   1.358       .  S
C397        C398   1.408       .  A
C397        C402   1.408       .  A
C397        F415   1.357       .  S
C398        C403   1.487       .  S
C398        C399   1.401       .  A
C399        C400   1.395       .  A
C399        F404   1.359       .  S
C400        C401   1.416       .  A
C400        F416   1.358       .  S
C401        C402   1.411       .  A
C402        F405   1.357       .  S
C403        C406   1.406       .  A
C403        C410   1.404       .  A
C406        C407   1.404       .  A
C406        F411   1.358       .  S
C407        C408   1.411       .  A
C407        F413   1.358       .  S
C408        C409   1.412       .  A
C409        C410   1.401       .  A
C409        F412   1.358       .  S
C410        F414   1.358       .  S
C417        C418   1.401       .  A
C417        C422   1.400       .  A
C417        F435   1.358       .  S
C418        C423   1.482   1_556  S
C418        C419   1.405       .  A
C419        C420   1.402       .  A
C419        F424   1.358   1_655  S
C420        C421   1.410       .  A
C420        F436   1.358       .  S
C421        C422   1.415       .  A
C422        F425   1.358       .  S
C423        C426   1.402   1_655  A
C423        C430   1.404       .  A
C426        C427   1.401       .  A
C426        F431   1.358   1_554  S
C427        C428   1.415       .  A
C427        F433   1.358       .  S
C428        C429   1.411       .  A
C429        C430   1.400   1_455  A
C429        F432   1.356   1_455  S
C430        F434   1.358       .  S
C437        C438   1.409       .  A
C437        C442   1.404       .  A
C437        F455   1.358       .  S
C438        C443   1.491   1_565  S
C438        C439   1.407       .  A
C439        C440   1.400       .  A
C439        F444   1.358       .  S
C440        C441   1.405       .  A
C440        F456   1.358       .  S
C441        C442   1.407       .  A
C442        F445   1.358       .  S
C443        C446   1.408       .  A
C443        C450   1.407       .  A
C446        C447   1.406       .  A
C446        F451   1.357       .  S
C447        C448   1.407       .  A
C447        F453   1.357       .  S
C448        C449   1.407       .  A
C449        C450   1.398       .  A
C449        F452   1.358       .  S
C450        F454   1.358       .  S
C457        C458   1.412       .  A
C457        C462   1.404       .  A
C457        F475   1.358       .  S
C458        C463   1.487       .  S
C458        C459   1.403       .  A
C459        C460   1.396       .  A
C459        F464   1.358       .  S
C460        C461   1.409       .  A
C460        F476   1.358       .  S
C461        C462   1.403       .  A
C462        F465   1.357       .  S
C463        C466   1.405       .  A
C463        C470   1.410       .  A
C466        C467   1.397       .  A
C466        F471   1.358       .  S
C467        C468   1.408       .  A
C467        F473   1.358       .  S
C468        C469   1.405       .  A
C469        C470   1.403       .  A
C469        F472   1.358       .  S
C470        F474   1.358       .  S
C477        C478   1.404       .  A
C477        C482   1.396       .  A
C477        F495   1.358       .  S
C478        C483   1.477   1_554  S
C478        C479   1.401       .  A
C479        C480   1.398       .  A
C479        F484   1.358   1_554  S
C480        C481   1.414       .  A
C480        F496   1.358       .  S
C481        C482   1.410       .  A
C482        F485   1.358       .  S
C483        C486   1.407       .  A
C483        C490   1.399       .  A
C486        C487   1.405       .  A
C486        F491   1.358       .  S
C487        C488   1.409       .  A
C487        F493   1.358       .  S
C488        C489   1.412       .  A
C489        C490   1.389       .  A
C489        F492   1.358       .  S
C490        F494   1.358       .  S
C497        C498   1.405       .  A
C497        C502   1.401       .  A
C497        F515   1.358       .  S
C498        C503   1.477       .  S
C498        C499   1.402       .  A
C499        C500   1.400       .  A
C499        F504   1.358       .  S
C500        C501   1.408       .  A
C500        F516   1.356       .  S
C501        C502   1.406       .  A
C502        F505   1.358       .  S
C503        C506   1.400       .  A
C503        C510   1.403       .  A
C506        C507   1.399       .  A
C506        F511   1.358       .  S
C507        C508   1.416       .  A
C507        F513   1.358       .  S
C508        C509   1.411       .  A
C509        C510   1.400       .  A
C509        F512   1.358       .  S
C510        F514   1.358       .  S
C517        C518   1.407       .  A
C517        C522   1.399       .  A
C517        F535   1.358       .  S
C518        C523   1.491   1_455  S
C518        C519   1.407       .  A
C519        C520   1.405       .  A
C519        F524   1.357       .  S
C520        C521   1.410       .  A
C520        F536   1.358       .  S
C521        C522   1.408       .  A
C522        F525   1.358       .  S
C523        C526   1.411       .  A
C523        C530   1.405       .  A
C526        C527   1.407       .  A
C526        F531   1.357       .  S
C527        C528   1.403       .  A
C527        F533   1.357       .  S
C528        C529   1.407       .  A
C529        C530   1.398       .  A
C529        F532   1.359       .  S
C530        F534   1.358       .  S
C537        C538   1.408       .  A
C537        C542   1.395       .  A
C537        F555   1.358       .  S
C538        C543   1.492   1_545  S
C538        C539   1.410       .  A
C539        C540   1.405       .  A
C539        F544   1.358       .  S
C540        C541   1.407       .  A
C540        F556   1.358       .  S
C541        C542   1.407       .  A
C542        F545   1.358       .  S
C543        C546   1.410       .  A
C543        C550   1.410       .  A
C546        C547   1.400       .  A
C546        F551   1.358       .  S
C547        C548   1.404       .  A
C547        F553   1.358       .  S
C548        C549   1.406       .  A
C549        C550   1.401       .  A
C549        F552   1.358       .  S
C550        F554   1.358       .  S
C557        C558   1.410       .  A
C557        C562   1.407       .  A
C557        F575   1.358       .  S
C558        C563   1.494       .  S
C558        C559   1.405       .  A
C559        C560   1.399       .  A
C559        F564   1.358       .  S
C560        C561   1.413       .  A
C560        F576   1.358       .  S
C561        C562   1.410       .  A
C562        F565   1.357       .  S
C563        C566   1.408       .  A
C563        C570   1.408       .  A
C566        C567   1.403       .  A
C566        F571   1.358       .  S
C567        C568   1.408       .  A
C567        F573   1.358       .  S
C568        C569   1.408       .  A
C569        C570   1.404       .  A
C569        F572   1.358       .  S
C570        F574   1.358       .  S
C577        C578   1.400       .  A
C577        C582   1.396       .  A
C577        F595   1.358       .  S
C578        C583   1.474   1_556  S
C578        C579   1.403       .  A
C579        C580   1.402       .  A
C579        F584   1.358   1_556  S
C580        C581   1.411       .  A
C580        F596   1.358       .  S
C581        C582   1.411       .  A
C582        F585   1.358       .  S
C583        C586   1.406       .  A
C583        C590   1.399       .  A
C586        C587   1.403       .  A
C586        F591   1.357       .  S
C587        C588   1.406       .  A
C587        F593   1.358       .  S
C588        C589   1.411       .  A
C589        C590   1.393       .  A
C589        F592   1.358       .  S
C590        F594   1.358       .  S
C597        C598   1.407       .  A
C597        C602   1.407       .  A
C597        F615   1.358       .  S
C598        C603   1.491       .  S
C598        C599   1.407       .  A
C599        C600   1.398       .  A
C599        F604   1.358       .  S
C600        C601   1.405       .  A
C600        F616   1.358       .  S
C601        C602   1.411       .  A
C602        F605   1.358       .  S
C603        C606   1.408   1_655  A
C603        C610   1.406       .  A
C606        C607   1.409       .  A
C606        F611   1.357       .  S
C607        C608   1.408       .  A
C607        F613   1.357       .  S
C608        C609   1.406       .  A
C609        C610   1.397   1_455  A
C609        F612   1.356   1_455  S
C610        F614   1.358       .  S
C617        C618   1.407       .  A
C617        C622   1.405       .  A
C617        F635   1.357       .  S
C618        C623   1.489       .  S
C618        C619   1.405       .  A
C619        C620   1.397       .  A
C619        F624   1.359       .  S
C620        C621   1.410       .  A
C620        F636   1.353       .  S
C621        C622   1.412       .  A
C622        F625   1.358       .  S
C623        C626   1.407       .  A
C623        C630   1.405       .  A
C626        C627   1.399       .  A
C626        F631   1.358       .  S
C627        C628   1.410       .  A
C627        F633   1.358       .  S
C628        C629   1.412       .  A
C629        C630   1.402       .  A
C629        F632   1.358       .  S
C630        F634   1.357       .  S
C637        C638   1.406       .  A
C637        C642   1.396       .  A
C637        F655   1.358       .  S
C638        C643   1.489   1_554  S
C638        C639   1.408       .  A
C639        C640   1.408       .  A
C639        F644   1.357   1_554  S
C640        C641   1.409       .  A
C640        F656   1.358       .  S
C641        C642   1.402       .  A
C642        F645   1.352       .  S
C643        C646   1.405       .  A
C643        C650   1.408       .  A
C646        C647   1.398       .  A
C646        F651   1.358   1_556  S
C647        C648   1.410       .  A
C647        F653   1.358       .  S
C648        C649   1.410       .  A
C649        C650   1.405       .  A
C649        F652   1.358       .  S
C650        F654   1.358       .  S
