geometry optimzed in LAMMPS
_audit_creation_date              2020-12-01 
_audit_creation_method            'lammps2cif' 
_symmetry_space_group_name_H-M    'P1' 
_symmetry_Int_Tables_number       1 
_symmetry_cell_setting            triclinic 
loop_ 
_symmetry_equiv_pos_as_xyz 
  x,y,z 
_cell_length_a                    45.59712637 
_cell_length_b                    30.17652082973501 
_cell_length_c                    57.058702613527444 
_cell_angle_alpha                 90.03621319431953 
_cell_angle_beta                  89.88192696743029 
_cell_angle_gamma                 90.12387659446301 
loop_ 
_atom_site_label 
_atom_site_type_symbol 
_atom_site_fract_x 
_atom_site_fract_y 
_atom_site_fract_z 
_atom_site_charge 
Fe1        Fe  0.67128017  0.41686793  0.62903552     1.65800
Fe2        Fe  0.66281756  0.31711499  0.60267441     1.73200
Fe3        Fe  0.72927740  0.34682460  0.62327950     1.54400
O4          O  0.74481715  0.41187913  0.62017039    -0.81000
O5          O  0.67238670  0.26883291  0.62689171    -0.79300
O6          O  0.70504248  0.45280042  0.61579156    -0.83500
O7          O  0.69274912  0.41181183  0.66180843    -0.78400
O8          O  0.73610314  0.33586397  0.58772121    -0.80200
O9          O  0.62451388  0.33235818  0.62047380    -0.82900
C10         C  0.71229943  0.38614138  0.67058214     0.97900
C11         C  0.73252453  0.44906321  0.61686206     1.05300
O12         O  0.68764448  0.36046997  0.61865111    -1.11900
O13         O  0.65303284  0.36279500  0.57733374    -0.74300
O14         O  0.65045487  0.42725146  0.59657872    -0.77800
O15         O  0.72515076  0.35611623  0.65878205    -0.78500
C16         C  0.64770181  0.40410157  0.57788593     0.96800
O17         O  0.63372828  0.39003048  0.64348071    -0.76500
O18         O  0.69652031  0.29416801  0.58175988    -0.81600
C19         C  0.69828888  0.25458952  0.62994872     0.99400
C20         C  0.72227438  0.30632332  0.57626983     1.05300
O21         O  0.72061606  0.27970877  0.62773293    -0.77300
C22         C  0.61659608  0.36043902  0.63570344     1.03600
Fe23       Fe  0.83814596  0.05812335  0.36765103     1.65800
Fe24       Fe  0.84768641  0.15113980  0.40025948     1.73200
Fe25       Fe  0.77890449  0.12091018  0.38165794     1.54400
O26         O  0.77930700  0.10999268  0.34592697    -0.81000
O27         O  0.81886015  0.15687074  0.42801906    -0.79300
O28         O  0.82177899  0.07832207  0.33488799    -0.83500
O29         O  0.80247528  0.01868151  0.37136525    -0.78400
O30         O  0.78446938  0.18841287  0.37568358    -0.80200
O31         O  0.86653929  0.09898621  0.41818775    -0.82900
C32         C  0.77737510  0.01933820  0.38035624     0.97900
C33         C  0.79672978  0.09559425  0.33017176     1.05300
O34         O  0.82153255  0.11063347  0.38293578    -1.11900
O35         O  0.88122008  0.15221485  0.37542340    -0.74300
O36         O  0.87887227  0.08482773  0.36056993    -0.77800
O37         O  0.76631446  0.05517710  0.38789577    -0.78500
C38         C  0.89256892  0.12073290  0.36387446     0.96800
O39         O  0.85214956  0.03617616  0.40061835    -0.76500
O40         O  0.83037163  0.20713951  0.38495119    -0.81600
C41         C  0.79206487  0.14886878  0.43233043     0.99400
C42         C  0.80474865  0.21714946  0.37804939     1.05300
O43         O  0.77466556  0.13302712  0.41712486    -0.77300
C44         C  0.86257891  0.05721431  0.41823782     1.03600
Fe45       Fe  0.34572126  0.42239161  0.63215176     1.65800
Fe46       Fe  0.35118617  0.32373408  0.60343843     1.73200
Fe47       Fe  0.28623749  0.35471398  0.62641660     1.54400
O48         O  0.29140121  0.36222148  0.66170783    -0.81000
O49         O  0.31661803  0.30495401  0.58268922    -0.79300
O50         O  0.32426881  0.41718430  0.66540509    -0.83500
O51         O  0.31221540  0.46175998  0.62013828    -0.78400
O52         O  0.29307530  0.28639932  0.62987838    -0.80200
O53         O  0.36178849  0.37102601  0.57904263    -0.82900
C54         C  0.28460768  0.45774848  0.62080270     0.97900
C55         C  0.30352643  0.39266109  0.67363799     1.05300
O56         O  0.32789121  0.36702850  0.62104329    -1.11900
O57         O  0.38975972  0.33500618  0.62137910    -0.74300
O58         O  0.38282008  0.39132394  0.64567308    -0.77800
O59         O  0.27233116  0.42040748  0.62402237    -0.78500
C60         C  0.39875536  0.36034214  0.63755564     0.96800
O61         O  0.36629450  0.43408244  0.59921145    -0.76500
O62         O  0.34078666  0.27254299  0.62598722    -0.81600
C63         C  0.29068238  0.31783191  0.57872705     0.99400
C64         C  0.31473716  0.25977185  0.63037918     1.05300
O65         O  0.27794911  0.34668346  0.59122477    -0.77300
C66         C  0.36771646  0.41215246  0.57995202     1.03600
Fe67       Fe  0.16485280  0.06095524  0.37801810     1.65800
Fe68       Fe  0.15556332  0.15466952  0.41088329     1.73200
Fe69       Fe  0.22328237  0.12868330  0.39055437     1.54400
O70         O  0.23845452  0.06395942  0.39066334    -0.81000
O71         O  0.16878058  0.21098091  0.39302711    -0.79300
O72         O  0.19966038  0.02042777  0.38614733    -0.83500
O73         O  0.18497823  0.07744049  0.34574874    -0.78400
O74         O  0.22854647  0.13258352  0.42665865    -0.80200
O75         O  0.11960714  0.14897085  0.38954778    -0.82900
C76         C  0.20633437  0.10301989  0.33984636     0.97900
C77         C  0.22693253  0.02597465  0.38860538     1.05300
O78         O  0.18113330  0.11468146  0.39285433    -1.11900
O79         O  0.14126496  0.10265624  0.43112280    -0.74300
O80         O  0.14575697  0.04074780  0.40982944    -0.77800
O81         O  0.22087241  0.12600310  0.35456363    -0.78500
C82         C  0.13919201  0.06088896  0.42887553     0.96800
O83         O  0.12564696  0.08989205  0.36710166    -0.76500
O84         O  0.18680281  0.16661801  0.43560982    -0.81600
C85         C  0.19514924  0.22359437  0.39009277     0.99400
C86         C  0.21257896  0.15468809  0.44074052     1.05300
O87         O  0.21635200  0.19638870  0.38970362    -0.77300
C88         C  0.11007675  0.12181708  0.37450440     1.03600
Fe89       Fe  0.16560256  0.92285739  0.63814043     1.65800
Fe90       Fe  0.15552387  0.82567876  0.60767479     1.73200
Fe91       Fe  0.22350389  0.85371553  0.62805923     1.54400
O92         O  0.23885036  0.91810607  0.62279501    -0.81000
O93         O  0.16867865  0.77088263  0.62659120    -0.79300
O94         O  0.20061314  0.96170492  0.62890841    -0.83500
O95         O  0.18490521  0.91115360  0.67133915    -0.78400
O96         O  0.22927848  0.84110324  0.59297311    -0.80200
O97         O  0.12003696  0.83265636  0.62987691    -0.82900
C98         C  0.20771893  0.88932063  0.67759986     0.97900
C99         C  0.22742038  0.95630428  0.62428164     1.05300
O100        O  0.18146151  0.86733210  0.62484868    -1.11900
O101        O  0.14059134  0.87570124  0.58636619    -0.74300
O102        O  0.14715215  0.93959188  0.60562668    -0.77800
O103        O  0.22214355  0.86513928  0.66343812    -0.78500
C104        C  0.13964266  0.91771614  0.58737719     0.96800
O105        O  0.12668002  0.89531120  0.64957306    -0.76500
O106        O  0.18646864  0.81159222  0.58230371    -0.81600
C107        C  0.19434218  0.75927626  0.63256623     0.99400
C108        C  0.21330335  0.82010049  0.57858901     1.05300
O109        O  0.21549235  0.78681762  0.63364252    -0.77300
C110        C  0.11123345  0.86197996  0.64410223     1.03600
Fe111      Fe  0.33923372  0.56512039  0.37426691     1.65800
Fe112      Fe  0.34868599  0.66233165  0.40334800     1.73200
Fe113      Fe  0.28076707  0.63216508  0.38681463     1.54400
O114        O  0.27886819  0.62011242  0.35161138    -0.81000
O115        O  0.31782964  0.68472567  0.42693156    -0.79300
O116        O  0.31464650  0.57185495  0.34309882    -0.83500
O117        O  0.30718100  0.52569858  0.38835241    -0.78400
O118        O  0.28849984  0.69943162  0.37984631    -0.80200
O119        O  0.35945711  0.61410606  0.42704490    -0.82900
C120        C  0.28040682  0.52999584  0.39361612     0.97900
C121        C  0.29150843  0.59357195  0.33760425     1.05300
O122        O  0.32289102  0.61983734  0.38760657    -1.11900
O123        O  0.38545756  0.64825997  0.38351986    -0.74300
O124        O  0.37481555  0.59556257  0.35808539    -0.77800
O125        O  0.26752593  0.56727682  0.39340941    -0.78500
C126        C  0.39266278  0.62354920  0.36651946     0.96800
O127        O  0.36326066  0.55255218  0.40515468    -0.76500
O128        O  0.33682288  0.71239111  0.38064743    -0.81600
C129        C  0.29306939  0.67134706  0.43406156     0.99400
C130        C  0.31058798  0.72497222  0.37675238     1.05300
O131        O  0.27806802  0.64391947  0.42235057    -0.77300
C132        C  0.36474700  0.57296400  0.42481954     1.03600
Fe133      Fe  0.84036779  0.91920263  0.62745770     1.65800
Fe134      Fe  0.84748100  0.82219819  0.59809349     1.73200
Fe135      Fe  0.78198465  0.84900592  0.62178642     1.54400
O136        O  0.78708968  0.85765783  0.65717918    -0.81000
O137        O  0.81315636  0.80087625  0.57768772    -0.79300
O138        O  0.81915578  0.91343324  0.66038671    -0.83500
O139        O  0.80645719  0.95652162  0.61468068    -0.78400
O140        O  0.79092287  0.78216575  0.62577958    -0.80200
O141        O  0.85688759  0.87026456  0.57377795    -0.82900
C142        C  0.77892765  0.95115123  0.61506888     0.97900
C143        C  0.79992691  0.88722403  0.66923668     1.05300
O144        O  0.82331027  0.86363070  0.61596548    -1.11900
O145        O  0.88578450  0.83600153  0.61579257    -0.74300
O146        O  0.87716087  0.88910295  0.64165362    -0.77800
O147        O  0.76705656  0.91366101  0.61864809    -0.78500
C148        C  0.89400590  0.86028235  0.63268909     0.96800
O149        O  0.86202167  0.93157898  0.59529267    -0.76500
O150        O  0.83880044  0.77079981  0.62085788    -0.81600
C151        C  0.78629074  0.80959268  0.57439157     0.99400
C152        C  0.81319941  0.75682776  0.62578134     1.05300
O153        O  0.77281228  0.83796457  0.58677047    -0.77300
C154        C  0.86397969  0.91082072  0.57575493     1.03600
Fe155      Fe  0.66746467  0.55306835  0.36953031     1.65800
Fe156      Fe  0.65155534  0.64034404  0.40466765     1.73200
Fe157      Fe  0.72163468  0.62240425  0.38601754     1.54400
O158        O  0.73680258  0.55916104  0.39429376    -0.81000
O159        O  0.66813796  0.70076480  0.39403884    -0.79300
O160        O  0.70686358  0.52026136  0.37181500    -0.83500
O161        O  0.68199708  0.57934418  0.33768590    -0.78400
O162        O  0.72331821  0.63840879  0.42103116    -0.80200
O163        O  0.62184296  0.64338177  0.37731557    -0.82900
C164        C  0.70756801  0.59563361  0.33400994     0.97900
C165        C  0.73065283  0.52422707  0.38296600     1.05300
O166        O  0.68025143  0.60595802  0.38660721    -1.11900
O167        O  0.63253914  0.58325076  0.41817774    -0.74300
O168        O  0.65509332  0.52561422  0.40137834    -0.77800
O169        O  0.72407244  0.60859656  0.35068011    -0.78500
C170        C  0.64066701  0.54288090  0.41824793     0.96800
O171        O  0.62484894  0.57495010  0.36366075    -0.76500
O172        O  0.67753362  0.64280527  0.43422801    -0.81600
C173        C  0.69154040  0.71391013  0.38412037     0.99400
C174        C  0.70503637  0.64533881  0.43739193     1.05300
O175        O  0.71194889  0.68766266  0.37792556    -0.77300
C176        C  0.61100888  0.61109004  0.36608857     1.03600
Fe177      Fe  0.84322350  0.45730133  0.86857250     1.65800
Fe178      Fe  0.85319304  0.36592800  0.90246298     1.73200
Fe179      Fe  0.78522243  0.39197892  0.88188401     1.54400
O180        O  0.77206804  0.45611743  0.88958034    -0.81000
O181        O  0.83706480  0.30797622  0.88781867    -0.79300
O182        O  0.80552527  0.49386164  0.86988635    -0.83500
O183        O  0.82980958  0.43398812  0.83564129    -0.78400
O184        O  0.77963092  0.37641499  0.91692187    -0.80200
O185        O  0.88654101  0.36538961  0.87781039    -0.82900
C186        C  0.80415954  0.41929126  0.83066669     0.97900
C187        C  0.78080948  0.49126512  0.87969236     1.05300
O188        O  0.82722147  0.40443634  0.88416186    -1.11900
O189        O  0.87051083  0.42052390  0.91978071    -0.74300
O190        O  0.85487992  0.48184901  0.90156591    -0.77800
O191        O  0.78618090  0.40591062  0.84633305    -0.78500
C192        C  0.86562384  0.46216878  0.91945933     0.96800
O193        O  0.88502350  0.43309605  0.86332488    -0.76500
O194        O  0.82403742  0.35927288  0.92986743    -0.81600
C195        C  0.81252121  0.29754638  0.87878982     0.99400
C196        C  0.79661094  0.36274703  0.93295634     1.05300
O197        O  0.79273916  0.32609154  0.87450988    -0.77300
C198        C  0.89823238  0.39685236  0.86646999     1.03600
Fe199      Fe  0.66380204  0.09251784  0.12925209     1.65800
Fe200      Fe  0.65445444  0.19060819  0.10032118     1.73200
Fe201      Fe  0.72204558  0.16191530  0.11932769     1.54400
O202        O  0.72122906  0.14844994  0.15464957    -0.81000
O203        O  0.68611462  0.21279767  0.07750044    -0.79300
O204        O  0.68357109  0.10282040  0.16217633    -0.83500
O205        O  0.69886613  0.05496185  0.11946728    -0.78400
O206        O  0.71336540  0.22832850  0.12604483    -0.80200
O207        O  0.64311818  0.14181614  0.07651719    -0.82900
C208        C  0.72567763  0.06024858  0.11467210     0.97900
C209        C  0.70658447  0.12409786  0.16863547     1.05300
O210        O  0.68002899  0.14826336  0.11665687    -1.11900
O211        O  0.61755531  0.17775187  0.11987049    -0.74300
O212        O  0.62471292  0.11886485  0.14202769    -0.77800
O213        O  0.73726450  0.09829951  0.11301832    -0.78500
C214        C  0.60858295  0.15018325  0.13494965     0.96800
O215        O  0.64534457  0.07754425  0.09625791    -0.76500
O216        O  0.66564211  0.24219488  0.12259796    -0.81600
C217        C  0.71225719  0.20319047  0.07223165     0.99400
C218        C  0.69169349  0.25475545  0.12732510     1.05300
O219        O  0.72725564  0.17586375  0.08402267    -0.77300
C220        C  0.64081164  0.09971626  0.07742828     1.03600
Fe221      Fe  0.16782662  0.44259333  0.87230419     1.65800
Fe222      Fe  0.15749942  0.35298087  0.90766269     1.73200
Fe223      Fe  0.22575056  0.37736623  0.88641852     1.54400
O224        O  0.22645808  0.39159642  0.85103730    -0.81000
O225        O  0.18637855  0.34742417  0.93476357    -0.79300
O226        O  0.18363953  0.42020579  0.83963624    -0.83500
O227        O  0.20528951  0.47968378  0.87573713    -0.78400
O228        O  0.21730200  0.31238210  0.87845299    -0.80200
O229        O  0.14028203  0.40758215  0.92459360    -0.82900
C230        C  0.22989262  0.47679096  0.88578805     0.97900
C231        C  0.20918308  0.40467088  0.83501968     1.05300
O232        O  0.18363098  0.39050522  0.88866165    -1.11900
O233        O  0.12385440  0.35138200  0.88383654    -0.74300
O234        O  0.12658935  0.41578365  0.86555997    -0.77800
O235        O  0.23894787  0.44101054  0.89474351    -0.78500
C236        C  0.11276064  0.38061637  0.87077856     0.96800
O237        O  0.15340291  0.46819935  0.90458718    -0.76500
O238        O  0.17349411  0.29494148  0.89342389    -0.81600
C239        C  0.21389579  0.34809822  0.93726168     0.99400
C240        C  0.19751392  0.28426522  0.88360988     1.05300
O241        O  0.23121419  0.36005305  0.92108919    -0.77300
C242        C  0.14312641  0.44946962  0.92298733     1.03600
Fe243      Fe  0.33738591  0.08767057  0.13562534     1.65800
Fe244      Fe  0.34560779  0.18675049  0.10709733     1.73200
Fe245      Fe  0.27973279  0.15800805  0.12919451     1.54400
O246        O  0.26432691  0.09279627  0.12720195    -0.81000
O247        O  0.33560241  0.23815234  0.12951801    -0.79300
O248        O  0.30304510  0.04907462  0.12344727    -0.83500
O249        O  0.31630948  0.09412233  0.16867098    -0.78400
O250        O  0.27204965  0.16653129  0.09374796    -0.80200
O251        O  0.38295276  0.17489203  0.12629538    -0.82900
C252        C  0.29694579  0.12063222  0.17703091     0.97900
C253        C  0.27553798  0.05462980  0.12440077     1.05300
O254        O  0.32105679  0.14384982  0.12412298    -1.11900
O255        O  0.35714553  0.13919625  0.08307948    -0.74300
O256        O  0.35837442  0.07567509  0.10328366    -0.77800
O257        O  0.28488532  0.15042690  0.16456782    -0.78500
C258        C  0.36228483  0.09791309  0.08440397     0.96800
O259        O  0.37474419  0.11720771  0.14950812    -0.76500
O260        O  0.31192262  0.20614852  0.08516415    -0.81600
C261        C  0.30985371  0.25203043  0.13354263     0.99400
C262        C  0.28581258  0.19395616  0.08089282     1.05300
O263        O  0.28777511  0.22606475  0.13259743    -0.77300
C264        C  0.39096580  0.14871149  0.14236442     1.03600
Fe265      Fe  0.34223733  0.94106536  0.87725912     1.65800
Fe266      Fe  0.34861225  0.85075191  0.91248392     1.73200
Fe267      Fe  0.28202325  0.87794563  0.89051727     1.54400
O268        O  0.26869014  0.94324584  0.89042179    -0.81000
O269        O  0.33610447  0.79557237  0.89365766    -0.79300
O270        O  0.30909273  0.98332135  0.88551592    -0.83500
O271        O  0.32161375  0.92474222  0.84521032    -0.78400
O272        O  0.27569652  0.87593559  0.92647768    -0.80200
O273        O  0.38612628  0.85556062  0.89272181    -0.82900
C274        C  0.29971865  0.90019577  0.83950352     0.97900
C275        C  0.28181687  0.98004416  0.88864591     1.05300
O276        O  0.32434945  0.89011640  0.89319963    -1.11900
O277        O  0.36191632  0.90328501  0.93270322    -0.74300
O278        O  0.36231722  0.96201535  0.90866166    -0.77800
O279        O  0.28461500  0.87889483  0.85452403    -0.78500
C280        C  0.36648504  0.94417922  0.92875696     0.96800
O281        O  0.37945871  0.90794704  0.86632109    -0.76500
O282        O  0.31591069  0.83920931  0.93646893    -0.81600
C283        C  0.30976013  0.78349867  0.89025772     0.99400
C284        C  0.29045562  0.85348936  0.94109286     1.05300
O285        O  0.28841710  0.81043550  0.89019973    -0.77300
C286        C  0.39527928  0.87847665  0.87571441     1.03600
Fe287      Fe  0.16541848  0.58442536  0.13302939     1.65800
Fe288      Fe  0.15635617  0.68602181  0.10781483     1.73200
Fe289      Fe  0.22161385  0.65997394  0.13277029     1.54400
O290        O  0.21402359  0.64603138  0.16767876    -0.81000
O291        O  0.19031370  0.70919482  0.08817563    -0.79300
O292        O  0.18275835  0.58834928  0.16713291    -0.83500
O293        O  0.20208162  0.55123207  0.12175517    -0.78400
O294        O  0.21148793  0.72660236  0.13848319    -0.80200
O295        O  0.14744195  0.63991923  0.08171247    -0.82900
C296        C  0.22928545  0.55838099  0.12369448     0.97900
C297        C  0.20069450  0.61412290  0.17776792     1.05300
O298        O  0.18098217  0.64340886  0.12478871    -1.11900
O299        O  0.11824354  0.66972873  0.12478943    -0.74300
O300        O  0.12511930  0.60755014  0.14487881    -0.77800
O301        O  0.23944643  0.59655373  0.12850937    -0.78500
C302        C  0.10893420  0.63916114  0.13800854     0.96800
O303        O  0.14831202  0.57416733  0.09958137    -0.76500
O304        O  0.16401765  0.73695890  0.13164825    -0.81600
C305        C  0.21728209  0.70160707  0.08510449     0.99400
C306        C  0.18907620  0.75162557  0.13782688     1.05300
O307        O  0.23192808  0.67564353  0.09819702    -0.77300
C308        C  0.14423050  0.59798136  0.08142055     1.03600
Fe309      Fe  0.66697883  0.95665992  0.86736745     1.65800
Fe310      Fe  0.65398342  0.86777830  0.90187920     1.73200
Fe311      Fe  0.72341538  0.89281804  0.88385975     1.54400
O312        O  0.72655523  0.90837923  0.84852817    -0.81000
O313        O  0.67911281  0.86814458  0.93172312    -0.79300
O314        O  0.68303955  0.93176570  0.83532571    -0.83500
O315        O  0.70483771  0.99279251  0.87001181    -0.78400
O316        O  0.71636874  0.82757609  0.87474881    -0.80200
O317        O  0.63205811  0.92278191  0.91538178    -0.82900
C318        C  0.72791382  0.99143953  0.88216077     0.97900
C319        C  0.70937906  0.91821184  0.83172057     1.05300
O320        O  0.68150963  0.90499371  0.88423117    -1.11900
O321        O  0.62525842  0.86194535  0.87410898    -0.74300
O322        O  0.62535546  0.93123483  0.86165816    -0.77800
O323        O  0.73516925  0.95703698  0.89346591    -0.78500
C324        C  0.61271128  0.89409238  0.86410144     0.96800
O325        O  0.65321954  0.98254853  0.89955612    -0.76500
O326        O  0.67378042  0.80914309  0.89141160    -0.81600
C327        C  0.70657650  0.86542856  0.93461324     0.99400
C328        C  0.69765895  0.79871780  0.88125862     1.05300
O329        O  0.72498580  0.87405205  0.91852339    -0.77300
C330        C  0.63886767  0.96377824  0.91611718     1.03600
Fe331      Fe  0.83302464  0.59421063  0.13110494     1.65800
Fe332      Fe  0.84166274  0.69054469  0.10074701     1.73200
Fe333      Fe  0.77512214  0.66577123  0.12411840     1.54400
O334        O  0.75813193  0.60208282  0.12011744    -0.81000
O335        O  0.83295201  0.74285516  0.12269410    -0.79300
O336        O  0.79626419  0.55688658  0.12386034    -0.83500
O337        O  0.81633811  0.60646993  0.16452829    -0.78400
O338        O  0.76674714  0.67796527  0.08893210    -0.77000
O339        O  0.87969432  0.67867788  0.11858970    -0.82900
C340        C  0.79519704  0.62983189  0.17253110     0.97900
C341        C  0.76903556  0.56357183  0.12148178     1.05300
O342        O  0.81660281  0.64989274  0.11883155    -1.11900
O343        O  0.85166386  0.64105543  0.07738072    -0.74300
O344        O  0.84937142  0.57766737  0.09791851    -0.77800
O345        O  0.77947781  0.65494018  0.15973711    -0.78500
C346        C  0.85416000  0.59919844  0.07897393     0.96800
O347        O  0.87348932  0.62030817  0.14139325    -0.76500
O348        O  0.80850816  0.71090885  0.07913918    -0.81600
C349        C  0.80771179  0.75742916  0.12804784     0.99400
C350        C  0.78169120  0.70275874  0.07545053     1.05300
O351        O  0.78510346  0.73261149  0.12876253    -0.77300
C352        C  0.88943625  0.65116670  0.13326201     1.03600
C353        C  0.71221064  0.82611425  0.99764476    -0.13700
C354        C  0.73530445  0.79578162  0.99552281     0.16700
C355        C  0.74967026  0.79060576  0.97390148     0.03000
C356        C  0.74110536  0.81613928  0.95477176    -0.12200
C357        C  0.71763462  0.84604805  0.95656221    -0.03300
C358        C  0.70298312  0.85085450  0.97823689     0.02200
C359        C  0.74592024  0.77231550  0.01641119     0.09000
N360        N  0.77217348  0.75818282  0.97087080     0.65400
H361        H  0.75189362  0.81071407  0.93809366     0.18300
N362        N  0.67889282  0.88069640  0.98083077     0.75900
H363        H  0.70138428  0.83053088  0.01438018     0.09800
C364        C  0.76892496  0.79043664  0.02959227     0.03500
C365        C  0.77997772  0.76707912  0.04867344    -0.05200
C366        C  0.76807703  0.72578488  0.05530273    -0.23600
C367        C  0.74408957  0.70856165  0.04259466     0.12800
C368        C  0.73347090  0.73165637  0.02301469    -0.12700
N369        N  0.78077498  0.83308980  0.02403958     0.64400
H370        H  0.79779639  0.78175417  0.05856627     0.12300
N371        N  0.73053126  0.66769928  0.04912987     0.61100
H372        H  0.71548597  0.71792148  0.01296164     0.08500
O373        O  0.65304611  0.86569565  0.98129148    -0.40400
O374        O  0.68362254  0.92034890  0.98677572    -0.39600
O375        O  0.76529380  0.71969354  0.96416137    -0.39600
O376        O  0.79864284  0.77030793  0.96990789    -0.37300
O377        O  0.70907651  0.66808023  0.06313093    -0.38200
O378        O  0.73618540  0.63292364  0.03771371    -0.34300
O379        O  0.76931117  0.86747008  0.03265769    -0.35700
O380        O  0.80112557  0.83669535  0.00914485    -0.40000
C381        C  0.02880997  0.60604761  0.14370605    -0.13700
C382        C  0.01557666  0.64758990  0.14682485     0.16700
C383        C  0.03350924  0.68532422  0.14967652     0.03000
C384        C  0.06405638  0.68131369  0.14824639    -0.12200
C385        C  0.07735823  0.64013215  0.14410773    -0.03300
C386        C  0.05944423  0.60203633  0.14206987     0.02200
C387        C  0.98322701  0.65144248  0.14446320     0.09000
N388        N  0.02102185  0.72803092  0.15381644     0.65400
H389        H  0.07748397  0.71084668  0.14977017     0.18300
N390        N  0.07167958  0.56006103  0.13577344     0.75900
H391        H  0.01520182  0.57701262  0.14101160     0.09800
C392        C  0.97071581  0.67036769  0.12427666     0.03500
C393        C  0.94021802  0.67189217  0.12186649    -0.05200
C394        C  0.92136053  0.65371466  0.13894845    -0.23600
C395        C  0.93395317  0.63524275  0.15933770     0.12800
C396        C  0.96466721  0.63424212  0.16191107    -0.12700
N397        N  0.98864680  0.68502313  0.10518340     0.64400
H398        H  0.93136291  0.68528916  0.10578586     0.12300
N399        N  0.91599711  0.61819957  0.17778098     0.61100
H400        H  0.97407539  0.61975235  0.17751074     0.08500
O401        O  0.08012925  0.55344958  0.11498323    -0.40400
O402        O  0.06923846  0.52765324  0.14960538    -0.39600
O403        O  0.01089170  0.73700243  0.17385307    -0.39600
O404        O  0.02588714  0.75911005  0.13952836    -0.37300
O405        O  0.91404974  0.57685579  0.18068837    -0.38200
O406        O  0.90754418  0.64390707  0.19387072    -0.34300
O407        O  0.99740762  0.65709531  0.09027354    -0.35700
O408        O  0.98962953  0.72572987  0.10020127    -0.40000
C409        C  0.47641893  0.84812637  0.87485784    -0.13700
C410        C  0.48719405  0.87753627  0.85794052     0.16700
C411        C  0.46726963  0.90306051  0.84482695     0.03000
C412        C  0.43719647  0.90108406  0.84998572    -0.12200
C413        C  0.42630785  0.87320195  0.86779532    -0.03300
C414        C  0.44637061  0.84529745  0.87972135     0.02200
C415        C  0.51939872  0.88361770  0.85595421     0.09000
N416        N  0.47721217  0.93071901  0.82605851     0.65400
H417        H  0.42244088  0.92215928  0.84027141     0.18300
N418        N  0.43693512  0.81486480  0.89740481     0.75900
H419        H  0.49154327  0.82815004  0.88488148     0.09800
C420        C  0.53275868  0.92390832  0.86255093     0.03500
C421        C  0.56334904  0.92740664  0.86275362    -0.05200
C422        C  0.58122595  0.89062423  0.85789821    -0.23600
C423        C  0.56785101  0.85045142  0.85104308     0.12800
C424        C  0.53715890  0.84744140  0.84985390    -0.12700
N425        N  0.51578721  0.95963393  0.87191566     0.64400
H426        H  0.57310768  0.95804554  0.86893222     0.12300
N427        N  0.58503569  0.81223429  0.84572560     0.61100
H428        H  0.52708861  0.81620511  0.84498191     0.08500
O429        O  0.42679939  0.77757729  0.89146997    -0.40400
O430        O  0.44351430  0.82186056  0.91856249    -0.39600
O431        O  0.48768380  0.91312939  0.80780763    -0.39600
O432        O  0.47069278  0.97133993  0.82586902    -0.37300
O433        O  0.58690022  0.78138449  0.86055838    -0.38200
O434        O  0.59311905  0.80540537  0.82487624    -0.34300
O435        O  0.50524933  0.95624284  0.89231291    -0.35700
O436        O  0.51696127  0.99726516  0.86232824    -0.40000
C437        C  0.23954850  0.81168623  0.98903884    -0.13700
C438        C  0.26008167  0.80191453  0.00660686     0.16700
C439        C  0.28946641  0.81444552  0.00359711     0.03000
C440        C  0.29839598  0.83404505  0.98264170    -0.12200
C441        C  0.27838947  0.84151793  0.96432585    -0.03300
C442        C  0.24846240  0.83148916  0.96792909     0.02200
C443        C  0.25092418  0.77693514  0.02760364     0.09000
N444        N  0.31053838  0.80688437  0.02164122     0.65400
H445        H  0.32138114  0.84225250  0.98042397     0.18300
N446        N  0.22733104  0.83813049  0.94981785     0.75900
H447        H  0.21678171  0.80232038  0.99137003     0.09800
C448        C  0.23217627  0.79623345  0.04423859     0.03500
C449        C  0.22262449  0.77126160  0.06330382    -0.05200
C450        C  0.23116641  0.72682189  0.06605463    -0.23600
C451        C  0.25024413  0.70749450  0.04963247     0.12800
C452        C  0.26025779  0.73284460  0.03059647    -0.12700
N453        N  0.22257130  0.84107851  0.04190079     0.64400
H454        H  0.20802035  0.78662119  0.07596757     0.12300
N455        N  0.25760867  0.66155872  0.05106856     0.61100
H456        H  0.27439203  0.71762022  0.01758298     0.08500
O457        O  0.21146647  0.87233486  0.95007306    -0.40400
O458        O  0.22150030  0.80703328  0.93577317    -0.39600
O459        O  0.32836825  0.77514393  0.01984811    -0.39600
O460        O  0.31368038  0.83500455  0.03782094    -0.37300
O461        O  0.28282787  0.65011772  0.05776505    -0.38200
O462        O  0.23815332  0.63243083  0.04769730    -0.34300
O463        O  0.19600183  0.84908390  0.03747347    -0.35700
O464        O  0.23940909  0.87236903  0.04780568    -0.40000
C465        C  0.38606313  0.07805229  0.02120830    -0.13700
C466        C  0.37623121  0.03454369  0.01752515     0.16700
C467        C  0.36559783  0.01011156  0.03691801     0.03000
C468        C  0.36300621  0.03034967  0.05899343    -0.12200
C469        C  0.37122283  0.07476488  0.06240017    -0.03300
C470        C  0.38410773  0.09800509  0.04339118     0.02200
C471        C  0.37711261  0.01507080  0.99345676     0.09000
N472        N  0.35585243  0.96536102  0.03423676     0.65400
H473        H  0.35315459  0.01177724  0.07321863     0.18300
N474        N  0.39591276  0.14157470  0.04643877     0.75900
H475        H  0.39551472  0.09657592  0.00679094     0.09800
C476        C  0.36228666  0.03486707  0.97439822     0.03500
C477        C  0.36130834  0.01330547  0.95254262    -0.05200
C478        C  0.37484492  0.97197486  0.94925776    -0.23600
C479        C  0.39167338  0.95418672  0.96778283     0.12800
C480        C  0.39263322  0.97569274  0.98955079    -0.12700
N481        N  0.34642100  0.07528736  0.97738044     0.64400
H482        H  0.34811928  0.02741954  0.93865467     0.12300
N483        N  0.40781451  0.91402697  0.96477089     0.61100
H484        H  0.40534849  0.96121086  0.00359794     0.08500
O485        O  0.38464713  0.17391589  0.03575204    -0.40400
O486        O  0.42024470  0.14646730  0.05663304    -0.39600
O487        O  0.37260088  0.93405208  0.04010088    -0.39600
O488        O  0.32901347  0.95756348  0.03078319    -0.37300
O489        O  0.43216932  0.91493484  0.95423898    -0.38200
O490        O  0.40033593  0.87970314  0.97592228    -0.34300
O491        O  0.35600747  0.11051948  0.96822101    -0.35700
O492        O  0.32076303  0.07435135  0.98569257    -0.40000
C493        C  0.24713663  0.93657024  0.11537130    -0.13700
C494        C  0.22385385  0.93491241  0.13147940     0.16700
C495        C  0.21591891  0.97398433  0.14342863     0.03000
C496        C  0.23173587  0.01345574  0.13957085    -0.12200
C497        C  0.25603351  0.01470901  0.12427728    -0.03300
C498        C  0.26324723  0.97575193  0.11174973     0.02200
C499        C  0.21044865  0.89099372  0.13700968     0.09000
N500        N  0.19307548  0.97346328  0.16059253     0.65400
H501        H  0.22605595  0.04259963  0.14970397     0.18300
N502        N  0.28694765  0.97529965  0.09533351     0.75900
H503        H  0.25341019  0.90677380  0.10601291     0.09800
C504        C  0.18550519  0.87489189  0.12518810     0.03500
C505        C  0.17712624  0.83014834  0.12754341    -0.05200
C506        C  0.19351252  0.80043303  0.14133384    -0.23600
C507        C  0.21727865  0.81777650  0.15446821     0.12800
C508        C  0.22536705  0.86253369  0.15223284    -0.12700
N509        N  0.16973735  0.90269118  0.10940209     0.64400
H510        H  0.15900963  0.81796962  0.11710937     0.12300
N511        N  0.23386007  0.79051317  0.16997233     0.61100
H512        H  0.24439452  0.87462900  0.16162386     0.08500
O513        O  0.28207462  0.98488560  0.07417800    -0.40400
O514        O  0.31073184  0.95667354  0.10076059    -0.39600
O515        O  0.19938098  0.96661452  0.18180469    -0.39600
O516        O  0.16810325  0.98842590  0.15541445    -0.37300
O517        O  0.25725692  0.77302537  0.16262843    -0.38200
O518        O  0.23026118  0.79533944  0.19174690    -0.34300
O519        O  0.17447173  0.89971681  0.08766522    -0.35700
O520        O  0.14752349  0.92351063  0.11663363    -0.40000
C521        C  0.31564148  0.37832818  0.12931318    -0.13700
C522        C  0.28693557  0.39054803  0.13535056     0.16700
C523        C  0.26769040  0.35801144  0.14414478     0.03000
C524        C  0.27655209  0.31366974  0.14534455    -0.12200
C525        C  0.30446342  0.30036737  0.13749522    -0.03300
C526        C  0.32459141  0.33371737  0.13030130     0.02200
C527        C  0.27604404  0.43595672  0.13014199     0.09000
N528        N  0.23849582  0.36932059  0.15099871     0.65400
H529        H  0.26081291  0.28921670  0.15126906     0.18300
N530        N  0.35354552  0.32283642  0.12255133     0.75900
H531        H  0.33066103  0.40310606  0.12262606     0.09800
C532        C  0.28489346  0.47333975  0.14315987     0.03500
C533        C  0.27157286  0.51469955  0.13911940    -0.05200
C534        C  0.24911118  0.51927478  0.12239360    -0.23600
C535        C  0.24199191  0.48238101  0.10819938     0.12800
C536        C  0.25536938  0.44130835  0.11221675    -0.12700
N537        N  0.30547448  0.46898681  0.16185703     0.64400
H538        H  0.27706531  0.54226816  0.15043746     0.12300
N539        N  0.22060502  0.48581600  0.08999800     0.61100
H540        H  0.24903783  0.41307476  0.10164999     0.08500
O541        O  0.37502272  0.32983481  0.13596000    -0.40400
O542        O  0.35818843  0.31459685  0.10118165    -0.39600
O543        O  0.21739342  0.36131933  0.13735299    -0.39600
O544        O  0.23337564  0.38074097  0.17187954    -0.37300
O545        O  0.22714046  0.50529477  0.07112619    -0.38200
O546        O  0.19730169  0.46329207  0.09117698    -0.34300
O547        O  0.33059086  0.48628740  0.16006640    -0.35700
O548        O  0.29728189  0.45303870  0.18123921    -0.40000
C549        C  0.19871560  0.15923727  0.89088631    -0.13700
C550        C  0.22718644  0.15014653  0.88309586     0.16700
C551        C  0.24370821  0.18363637  0.87209650     0.03000
C552        C  0.23240545  0.22640568  0.87073015    -0.12200
C553        C  0.20469365  0.23681418  0.88010371    -0.03300
C554        C  0.18722184  0.20209170  0.88938513     0.02200
C555        C  0.23942101  0.10559869  0.88666263     0.09000
N556        N  0.27194375  0.17472287  0.86217249     0.65400
H557        H  0.24603056  0.25193786  0.86291276     0.18300
N558        N  0.15822887  0.20975206  0.89800747     0.75900
H559        H  0.18564408  0.13312967  0.89880766     0.09800
C560        C  0.26353327  0.09855742  0.90162821     0.03500
C561        C  0.27626843  0.05661578  0.90281076    -0.05200
C562        C  0.26511158  0.02140023  0.88950220    -0.23600
C563        C  0.24049480  0.02814138  0.87506200     0.12800
C564        C  0.22768565  0.07011977  0.87389854    -0.12700
N565        N  0.27526970  0.13351113  0.91574988     0.64400
H566        H  0.29518575  0.05162915  0.91391493     0.12300
N567        N  0.23016574  0.99408045  0.85972987     0.61100
H568        H  0.20944970  0.07557989  0.86216165     0.08500
O569        O  0.15415773  0.21542024  0.91968505    -0.40400
O570        O  0.13657487  0.20157571  0.88495454    -0.39600
O571        O  0.27387073  0.15011274  0.84435174    -0.39600
O572        O  0.29373496  0.19799004  0.86812338    -0.37300
O573        O  0.20638724  0.97443413  0.86429885    -0.38200
O574        O  0.24152402  0.98994795  0.83965852    -0.34300
O575        O  0.26212794  0.14437998  0.93435910    -0.35700
O576        O  0.30146292  0.14584671  0.91268785    -0.40000
C577        C  0.31091367  0.66103919  0.87484162    -0.13700
C578        C  0.28625360  0.64639597  0.88747715     0.16700
C579        C  0.27014171  0.67665626  0.90107463     0.03000
C580        C  0.27819522  0.72112187  0.90133089    -0.12200
C581        C  0.30250814  0.73619728  0.88850052    -0.03300
C582        C  0.31933165  0.70581524  0.87545195     0.02200
C583        C  0.27630599  0.60007180  0.88574246     0.09000
N584        N  0.24531574  0.66269496  0.91453823     0.65400
H585        H  0.26549063  0.74401644  0.91190853     0.18300
N586        N  0.34439423  0.72014759  0.86238943     0.75900
H587        H  0.32337120  0.63776784  0.86433832     0.09800
C588        C  0.26134635  0.58537584  0.86568540     0.03500
C589        C  0.24752753  0.54414309  0.86589341    -0.05200
C590        C  0.24836450  0.51690922  0.88584624    -0.23600
C591        C  0.26476733  0.53054625  0.90549172     0.12800
C592        C  0.27840061  0.57222830  0.90535895    -0.12700
N593        N  0.25821751  0.61329713  0.84562433     0.64400
H594        H  0.23525863  0.53390978  0.85054155     0.12300
N595        N  0.26615905  0.50396450  0.92616274     0.61100
H596        H  0.28974767  0.58364190  0.92091821     0.08500
O597        O  0.36980545  0.71036969  0.86937264    -0.40400
O598        O  0.34130107  0.74566040  0.84505646    -0.39600
O599        O  0.24774798  0.65811908  0.93642910    -0.39600
O600        O  0.22015781  0.66287350  0.90537552    -0.37300
O601        O  0.28717785  0.47730361  0.92874227    -0.38200
O602        O  0.25025769  0.51354959  0.94355501    -0.34300
O603        O  0.27513047  0.60821629  0.82830678    -0.35700
O604        O  0.23545813  0.63663283  0.84342757    -0.40000
C605        C  0.14574587  0.53640351  0.97184093    -0.13700
C606        C  0.13072774  0.51436359  0.98997717     0.16700
C607        C  0.11641866  0.47402997  0.98477113     0.03000
C608        C  0.11936161  0.45505547  0.96241577    -0.12200
C609        C  0.13571246  0.47582234  0.94449390    -0.03300
C610        C  0.14801403  0.51798175  0.94923707     0.02200
C611        C  0.13132551  0.53357305  0.01418737     0.09000
N612        N  0.09829334  0.45230160  0.00176537     0.65400
H613        H  0.10895176  0.42337425  0.95917842     0.18300
N614        N  0.16370217  0.54202618  0.93164301     0.75900
H615        H  0.15639557  0.56779184  0.97539090     0.09800
C616        C  0.14289702  0.51010312  0.03354043     0.03500
C617        C  0.14515366  0.53093595  0.05552776    -0.05200
C618        C  0.13696236  0.57546389  0.05875152    -0.23600
C619        C  0.12424288  0.59815522  0.03962141     0.12800
C620        C  0.12162721  0.57723552  0.01769983    -0.12700
N621        N  0.15452163  0.46631816  0.03090469     0.64400
H622        H  0.15505276  0.51289684  0.06978191     0.12300
N623        N  0.11342547  0.64229058  0.04216584     0.61100
H624        H  0.11225068  0.59543525  0.00322131     0.08500
O625        O  0.19096877  0.54791405  0.93374814    -0.40400
O626        O  0.14963194  0.56475815  0.91692649    -0.39600
O627        O  0.07452809  0.47016408  0.00800989    -0.39600
O628        O  0.10268806  0.41203409  0.00656960    -0.37300
O629        O  0.08695790  0.64831917  0.04780237    -0.38200
O630        O  0.12846068  0.67445714  0.03466181    -0.34300
O631        O  0.17627101  0.45995430  0.01761541    -0.35700
O632        O  0.14678195  0.43614439  0.04494282    -0.40000
C633        C  0.25842713  0.28317582  0.04043715    -0.13700
C634        C  0.24832324  0.25853971  0.02143381     0.16700
C635        C  0.24861079  0.21184941  0.02244152     0.03000
C636        C  0.25984222  0.19049333  0.04235916    -0.12200
C637        C  0.27094290  0.21547617  0.06110362    -0.03300
C638        C  0.26972332  0.26216336  0.06012135     0.02200
C639        C  0.23979815  0.28266051  0.00012760     0.09000
N640        N  0.23779954  0.18605636  0.00330152     0.65400
H641        H  0.26068316  0.15457832  0.04290603     0.18300
N642        N  0.27990916  0.28890663  0.07904988     0.75900
H643        H  0.25828919  0.31912875  0.03971994     0.09800
C644        C  0.21475297  0.30969795  0.99983657     0.03500
C645        C  0.20779567  0.33344857  0.97963407    -0.05200
C646        C  0.22559816  0.33089314  0.95954502    -0.23600
C647        C  0.25162623  0.30555033  0.96034367     0.12800
C648        C  0.25843511  0.28160485  0.98059468    -0.12700
N649        N  0.19555141  0.31190175  0.01961779     0.64400
H650        H  0.18780005  0.35270746  0.97938527     0.12300
N651        N  0.27048787  0.30165609  0.94040945     0.61100
H652        H  0.27820143  0.26183345  0.98103082     0.08500
O653        O  0.26150933  0.30331737  0.09370164    -0.40400
O654        O  0.30441169  0.30803806  0.07715402    -0.39600
O655        O  0.25549933  0.16916338  0.98882812    -0.39600
O656        O  0.21056608  0.18358914  0.99962072    -0.37300
O657        O  0.29405132  0.32362683  0.93970604    -0.38200
O658        O  0.26646535  0.27061467  0.92592931    -0.34300
O659        O  0.19620191  0.34544321  0.03282204    -0.35700
O660        O  0.17461323  0.28468678  0.02133045    -0.40000
C661        C  0.73238100  0.36341079  0.13858004    -0.13700
C662        C  0.71125201  0.39488746  0.13245392     0.16700
C663        C  0.68275670  0.38014711  0.12676738     0.03000
C664        C  0.67616497  0.33454722  0.12702218    -0.12200
C665        C  0.69777794  0.30266132  0.13222564    -0.03300
C666        C  0.72619056  0.31802839  0.13847332     0.02200
C667        C  0.72076194  0.44211039  0.13057450     0.09000
N668        N  0.66047042  0.41084647  0.12012096     0.65400
H669        H  0.65437893  0.32407884  0.12186796     0.18300
N670        N  0.74988917  0.28841365  0.14322346     0.75900
H671        H  0.75461826  0.37397859  0.14223831     0.09800
C672        C  0.73532028  0.46303579  0.14938640     0.03500
C673        C  0.74968180  0.50346745  0.14589667    -0.05200
C674        C  0.74954844  0.52456313  0.12401160    -0.23600
C675        C  0.73362981  0.50526134  0.10543111     0.12800
C676        C  0.71974420  0.46391225  0.10876983    -0.12700
N677        N  0.73652429  0.44293412  0.17205111     0.64400
H678        H  0.76165682  0.51809042  0.16033628     0.12300
N679        N  0.73242037  0.52596408  0.08292033     0.61100
H680        H  0.70923180  0.44799147  0.09403897     0.08500
O681        O  0.76483176  0.27365740  0.12629271    -0.40400
O682        O  0.76106849  0.28846772  0.16342033    -0.39600
O683        O  0.65443341  0.41575972  0.09870643    -0.39600
O684        O  0.64281681  0.42502059  0.13542449    -0.37300
O685        O  0.71802318  0.56131667  0.08047245    -0.38200
O686        O  0.74032915  0.50466215  0.06495196    -0.34300
O687        O  0.76040598  0.42691941  0.17926057    -0.35700
O688        O  0.71607484  0.44997649  0.18649614    -0.40000
C689        C  0.77211981  0.86837929  0.13937937    -0.13700
C690        C  0.78582703  0.89410645  0.12209325     0.16700
C691        C  0.81046764  0.87711747  0.11031822     0.03000
C692        C  0.81927640  0.83335921  0.11444689    -0.12200
C693        C  0.80356574  0.80591252  0.13000986    -0.03300
C694        C  0.78048674  0.82450004  0.14322483     0.02200
C695        C  0.77258533  0.93721585  0.11585488     0.09000
N696        N  0.82521202  0.90254666  0.09277454     0.65400
H697        H  0.83695135  0.81981282  0.10396031     0.18300
N698        N  0.76497159  0.79932907  0.16040151     0.75900
H699        H  0.75387599  0.88186137  0.14924377     0.09800
C700        C  0.74323074  0.93904966  0.10837092     0.03500
C701        C  0.72905271  0.97977029  0.10676501    -0.05200
C702        C  0.74362892  0.01954487  0.11221545    -0.23600
C703        C  0.77364836  0.01793517  0.11835240     0.12800
C704        C  0.78791429  0.97680918  0.12002310    -0.12700
N705        N  0.72705171  0.89954590  0.10325288     0.64400
H706        H  0.70617934  0.97988038  0.10229428     0.12300
N707        N  0.78910143  0.05693951  0.12542982     0.61100
H708        H  0.81028646  0.97565511  0.12611468     0.08500
O709        O  0.74067745  0.78207943  0.15497548    -0.40400
O710        O  0.77070559  0.80597632  0.18173399    -0.39600
O711        O  0.84870457  0.92250450  0.09783151    -0.39600
O712        O  0.81778022  0.89858116  0.07158828    -0.37300
O713        O  0.78645158  0.07092653  0.14617643    -0.38200
O714        O  0.80909198  0.07246832  0.11248820    -0.34300
O715        O  0.70805475  0.88575580  0.11763343    -0.35700
O716        O  0.72747531  0.88400298  0.08272321    -0.40000
C717        C  0.64520171  0.01976569  0.02551976    -0.13700
C718        C  0.62879905  0.04241400  0.00858058     0.16700
C719        C  0.61349305  0.08089221  0.01527229     0.03000
C720        C  0.61622927  0.09756523  0.03819123    -0.12200
C721        C  0.63392479  0.07629247  0.05496068    -0.03300
C722        C  0.64785893  0.03622846  0.04850021     0.02200
C723        C  0.62885663  0.02612331  0.98389573     0.09000
N724        N  0.59540215  0.10377671  0.99887161     0.65400
H725        H  0.60513846  0.12809655  0.04268267     0.18300
N726        N  0.66707568  0.01402308  0.06428160     0.75900
H727        H  0.65698332  0.99005634  0.02061800     0.09800
C728        C  0.64872516  0.04315285  0.96718256     0.03500
C729        C  0.64991402  0.02490543  0.94451401    -0.05200
C730        C  0.63184886  0.98905651  0.93804644    -0.23600
C731        C  0.61087530  0.97362433  0.95457146     0.12800
C732        C  0.60973485  0.99199055  0.97722673    -0.12700
N733        N  0.66905764  0.07726914  0.97341743     0.64400
H734        H  0.66646152  0.03705339  0.93244292     0.12300
N735        N  0.59056750  0.93924838  0.94867415     0.61100
H736        H  0.59405351  0.97909286  0.98981151     0.08500
O737        O  0.69407037  0.02324662  0.06385929    -0.40400
O738        O  0.65851941  0.97900854  0.07428097    -0.39600
O739        O  0.56788532  0.10000578  0.00020063    -0.39600
O740        O  0.60644520  0.13334546  0.98594332    -0.37300
O741        O  0.59292082  0.90155628  0.95804113    -0.38200
O742        O  0.56772548  0.94860752  0.93726860    -0.34300
O743        O  0.69176641  0.06756917  0.98491173    -0.35700
O744        O  0.66695544  0.11507893  0.96415352    -0.40000
C745        C  0.53531512  0.13456902  0.16755217    -0.13700
C746        C  0.51582701  0.15508792  0.15183274     0.16700
C747        C  0.52757795  0.17583573  0.13168478     0.03000
C748        C  0.55774949  0.17544778  0.12755710    -0.12200
C749        C  0.57728371  0.15359312  0.14263591    -0.03300
C750        C  0.56574414  0.13326238  0.16303530     0.02200
C751        C  0.48335379  0.15463360  0.15591818     0.09000
N752        N  0.50901386  0.19539590  0.11437531     0.65400
H753        H  0.56569984  0.19069377  0.11154900     0.18300
N754        N  0.58452151  0.11199414  0.17955410     0.75900
H755        H  0.52692441  0.11943376  0.18343030     0.09800
C756        C  0.46755597  0.11488220  0.15960801     0.03500
C757        C  0.43685245  0.11455952  0.15762610    -0.05200
C758        C  0.42142142  0.15307814  0.15145114    -0.23600
C759        C  0.43694126  0.19366540  0.15041969     0.12800
C760        C  0.46745523  0.19415286  0.15322824    -0.12700
N761        N  0.48235425  0.07379182  0.16318197     0.64400
H762        H  0.42541489  0.08312357  0.15879574     0.12300
N763        N  0.42234751  0.23441102  0.14530957     0.61100
H764        H  0.47901570  0.22541845  0.15165876     0.08500
O765        O  0.58623823  0.07026808  0.17973701    -0.40400
O766        O  0.59425162  0.13380532  0.19674685    -0.39600
O767        O  0.51014319  0.23664055  0.11081636    -0.39600
O768        O  0.49542659  0.17089093  0.10011317    -0.37300
O769        O  0.41488292  0.25958391  0.16193517    -0.38200
O770        O  0.42294296  0.24945671  0.12467793    -0.34300
O771        O  0.48203371  0.05619573  0.18323814    -0.35700
O772        O  0.49022871  0.05112471  0.14569064    -0.40000
C773        C  0.85181071  0.51855424  0.02790376    -0.13700
C774        C  0.87208784  0.53813792  0.01245952     0.16700
C775        C  0.88828199  0.57525612  0.01994408     0.03000
C776        C  0.88330872  0.59326243  0.04223503    -0.12200
C777        C  0.86207885  0.57504421  0.05729977    -0.03300
C778        C  0.84644252  0.53704017  0.05010772     0.02200
C779        C  0.87394931  0.52204045  0.98791017     0.09000
N780        N  0.90905193  0.59603054  0.00472550     0.65400
H781        H  0.89537919  0.62256739  0.04748647     0.18300
N782        N  0.82277263  0.52016039  0.06397315     0.75900
H783        H  0.83886113  0.49049050  0.02213049     0.09800
C784        C  0.88982973  0.48377562  0.98204764     0.03500
C785        C  0.88854597  0.46678705  0.95918853    -0.05200
C786        C  0.87125127  0.48701492  0.94173127    -0.23600
C787        C  0.85626280  0.52663587  0.94754732     0.12800
C788        C  0.85782791  0.54370529  0.97044355    -0.12700
N789        N  0.90662486  0.46099762  0.99935444     0.64400
H790        H  0.90031498  0.43650002  0.95538464     0.12300
N791        N  0.83743403  0.54804600  0.93111152     0.61100
H792        H  0.84538438  0.57308126  0.97486906     0.08500
O793        O  0.82577246  0.48447530  0.07521086    -0.40400
O794        O  0.79980660  0.54290677  0.06661785    -0.39600
O795        O  0.90111446  0.62815080  0.99211424    -0.39600
O796        O  0.93601337  0.58793216  0.00711851    -0.37300
O797        O  0.81011074  0.54171789  0.93229872    -0.38200
O798        O  0.84725577  0.57957111  0.91886357    -0.34300
O799        O  0.89641820  0.42643940  0.00879688    -0.35700
O800        O  0.93319736  0.47118081  0.00239179    -0.40000
C801        C  0.74674547  0.59785607  0.85878159    -0.13700
C802        C  0.73657430  0.61605723  0.87983946     0.16700
C803        C  0.73743561  0.59020254  0.90045423     0.03000
C804        C  0.75002997  0.54779097  0.89991126    -0.12200
C805        C  0.76235402  0.53126418  0.87915883    -0.03300
C806        C  0.75984444  0.55615392  0.85830062     0.02200
C807        C  0.72618575  0.66257410  0.87978892     0.09000
N808        N  0.72757698  0.60773229  0.92234034     0.65400
H809        H  0.75183125  0.52901089  0.91600866     0.18300
N810        N  0.77058324  0.53958645  0.83642829     0.75900
H811        H  0.74526866  0.61672611  0.84268650     0.09800
C812        C  0.74450773  0.69705101  0.87174435     0.03500
C813        C  0.73406952  0.74048586  0.87101203    -0.05200
C814        C  0.70549606  0.75103538  0.87850293    -0.23600
C815        C  0.68683329  0.71602963  0.88586618     0.12800
C816        C  0.69732690  0.67236615  0.88643929    -0.12700
N817        N  0.77430573  0.68878654  0.86523460     0.64400
H818        H  0.74907451  0.76629739  0.86546539     0.12300
N819        N  0.65718234  0.72395038  0.89278244     0.61100
H820        H  0.68278078  0.64593147  0.89195348     0.08500
O821        O  0.79583471  0.55079780  0.82951160    -0.40400
O822        O  0.75263274  0.52371192  0.82185818    -0.39600
O823        O  0.70334974  0.59503032  0.93071388    -0.39600
O824        O  0.74536415  0.62850466  0.93523770    -0.37300
O825        O  0.63693025  0.71962002  0.87791821    -0.38200
O826        O  0.65082012  0.72634752  0.91427846    -0.34300
O827        O  0.78196808  0.69220700  0.84404686    -0.35700
O828        O  0.79367894  0.68609737  0.88092569    -0.40000
C829        C  0.81433840  0.17082519  0.88027370    -0.13700
C830        C  0.78469613  0.16116506  0.87633588     0.16700
C831        C  0.76520190  0.19586334  0.87106896     0.03000
C832        C  0.77556565  0.23937480  0.86984542    -0.12200
C833        C  0.80495564  0.24993261  0.87502231    -0.03300
C834        C  0.82460302  0.21473972  0.87985510     0.02200
C835        C  0.77415838  0.11480886  0.87759268     0.09000
N836        N  0.73434358  0.18799802  0.86891568     0.65400
H837        H  0.75977676  0.26533203  0.86648764     0.18300
N838        N  0.85477488  0.22281341  0.88507054     0.75900
H839        H  0.82945919  0.14421126  0.88415491     0.09800
C840        C  0.76363889  0.09328817  0.85741367     0.03500
C841        C  0.74993265  0.05212628  0.85944573    -0.05200
C842        C  0.74675955  0.03123293  0.88129935    -0.23600
C843        C  0.75874841  0.05149685  0.90136941     0.12800
C844        C  0.77224733  0.09328677  0.89939567    -0.12700
N845        N  0.76664284  0.11294679  0.83473336     0.64400
H846        H  0.74125777  0.03657221  0.84377931     0.12300
N847        N  0.75556591  0.03168776  0.92395468     0.61100
H848        H  0.78021034  0.10975576  0.91502275     0.08500
O849        O  0.87384955  0.21717065  0.86930441    -0.40400
O850        O  0.86275534  0.22606328  0.90616772    -0.39600
O851        O  0.71981756  0.17655848  0.88677655    -0.39600
O852        O  0.72089678  0.20142941  0.85097033    -0.37300
O853        O  0.77577547  0.00747954  0.93186606    -0.38200
O854        O  0.73532055  0.04445208  0.93745654    -0.34300
O855        O  0.79107338  0.11121776  0.82435336    -0.35700
O856        O  0.74403415  0.12350487  0.82332324    -0.40000
C857        C  0.97765959  0.42204206  0.85026557    -0.13700
C858        C  0.98926188  0.37929295  0.84752072     0.16700
C859        C  0.96976028  0.34281545  0.84785789     0.03000
C860        C  0.94000760  0.34920263  0.85329045    -0.12200
C861        C  0.92878000  0.39179059  0.85752792    -0.03300
C862        C  0.94777299  0.42864595  0.85483859     0.02200
C863        C  0.02169613  0.37323127  0.84959524     0.09000
N864        N  0.97995755  0.29898713  0.84299581     0.65400
H865        H  0.92570439  0.32062019  0.85446437     0.18300
N866        N  0.93774791  0.47292051  0.85866210     0.75900
H867        H  0.99213377  0.45043309  0.85064154     0.09800
C868        C  0.04205192  0.39910048  0.83680150     0.03500
C869        C  0.07180205  0.39958520  0.84324644    -0.05200
C870        C  0.08200876  0.37458326  0.86235481    -0.23600
C871        C  0.06174775  0.34714913  0.87444722     0.12800
C872        C  0.03216562  0.34664131  0.86791710    -0.12700
N873        N  0.03282967  0.42565631  0.81745257     0.64400
H874        H  0.08684568  0.42049534  0.83355355     0.12300
N875        N  0.07000329  0.32304681  0.89496059     0.61100
H876        H  0.01689161  0.32785378  0.87854015     0.08500
O877        O  0.93822719  0.48906791  0.87906373    -0.40400
O878        O  0.93355434  0.49809691  0.84134612    -0.39600
O879        O  0.97758094  0.26918212  0.85839102    -0.39600
O880        O  0.98591405  0.28824389  0.82214902    -0.37300
O881        O  0.06996727  0.34237363  0.91458474    -0.38200
O882        O  0.07131785  0.28130839  0.89420655    -0.34300
O883        O  0.03350251  0.46734437  0.81916591    -0.35700
O884        O  0.03050102  0.40812357  0.79746272    -0.40000
C885        C  0.78950156  0.30803836  0.99274615    -0.13700
C886        C  0.75955513  0.29818106  0.99323325     0.16700
C887        C  0.74116960  0.31477435  0.97557383     0.03000
C888        C  0.75328813  0.33855810  0.95679698    -0.12200
C889        C  0.78373728  0.34648038  0.95541700    -0.03300
C890        C  0.80165807  0.33255859  0.97431083     0.02200
C891        C  0.74754593  0.27293935  0.01317865     0.09000
N892        N  0.71026833  0.30664242  0.97624506     0.65400
H893        H  0.73893030  0.34902865  0.94277088     0.18300
N894        N  0.83219138  0.34325548  0.97521579     0.75900
H895        H  0.80347641  0.29694380  0.00690332     0.09800
C896        C  0.75070265  0.22658891  0.01472519     0.03500
C897        C  0.73968411  0.20384339  0.03430165    -0.05200
C898        C  0.72547516  0.22699154  0.05232025    -0.23600
C899        C  0.72295126  0.27357707  0.05086774     0.12800
C900        C  0.73379864  0.29604246  0.03131636    -0.12700
N901        N  0.76466017  0.20233750  0.99635438     0.64400
H902        H  0.74170512  0.16808100  0.03521367     0.12300
N903        N  0.71160012  0.29886026  0.06999796     0.61100
H904        H  0.73205395  0.33186675  0.03050489     0.08500
O905        O  0.84008575  0.38168401  0.98129054    -0.40400
O906        O  0.85104058  0.31282917  0.97368973    -0.39600
O907        O  0.70049879  0.26794693  0.97306774    -0.39600
O908        O  0.69303458  0.33706959  0.98256202    -0.37300
O909        O  0.72928378  0.31472605  0.08476709    -0.38200
O910        O  0.68586314  0.31399617  0.06896206    -0.34300
O911        O  0.79105177  0.19058784  0.99850159    -0.35700
O912        O  0.74976929  0.18847635  0.97922809    -0.40000
C913        C  0.76301156  0.65322511  0.23280214    -0.13700
C914        C  0.76306734  0.61085749  0.24274839     0.16700
C915        C  0.77562368  0.57545438  0.23021468     0.03000
C916        C  0.78764245  0.58285055  0.20789446    -0.12200
C917        C  0.78683842  0.62512377  0.19755427    -0.03300
C918        C  0.77448604  0.66052706  0.21038557     0.02200
C919        C  0.74937721  0.60466480  0.26606325     0.09000
N920        N  0.77592785  0.53176874  0.23980206     0.65400
H921        H  0.79648183  0.55498289  0.19821189     0.18300
N922        N  0.77307292  0.70409401  0.20083816     0.75900
H923        H  0.75336413  0.68069483  0.24232158     0.09800
C924        C  0.76177290  0.62448381  0.28597387     0.03500
C925        C  0.74727264  0.62196470  0.30746175    -0.05200
C926        C  0.72021887  0.59956407  0.30992326    -0.23600
C927        C  0.70777017  0.57963704  0.28980556     0.12800
C928        C  0.72246989  0.58225485  0.26813377    -0.12700
N929        N  0.78948380  0.64662368  0.28473050     0.64400
H930        H  0.75769728  0.63756624  0.32239367     0.12300
N931        N  0.68033724  0.55682800  0.29094590     0.61100
H932        H  0.71254204  0.56752175  0.25273805     0.08500
O933        O  0.79334144  0.73127657  0.20537763    -0.40400
O934        O  0.74887943  0.71817307  0.19320239    -0.39600
O935        O  0.75771386  0.50334081  0.23260802    -0.39600
O936        O  0.79718977  0.51967211  0.25236350    -0.37300
O937        O  0.65682806  0.57825250  0.28838084    -0.38200
O938        O  0.67981665  0.51506065  0.28997965    -0.34300
O939        O  0.79036585  0.68841322  0.28440726    -0.35700
O940        O  0.81265996  0.62513087  0.28867646    -0.40000
C941        C  0.76367083  0.86484460  0.72849555    -0.13700
C942        C  0.76370624  0.90703272  0.73887643     0.16700
C943        C  0.77804006  0.94205665  0.72695321     0.03000
C944        C  0.79089056  0.93460543  0.70478240    -0.12200
C945        C  0.79019502  0.89252068  0.69416030    -0.03300
C946        C  0.77674058  0.85724391  0.70659692     0.02200
C947        C  0.74961748  0.91220163  0.76251435     0.09000
N948        N  0.78058636  0.98501547  0.73732537     0.65400
H949        H  0.80102654  0.96211755  0.69568133     0.18300
N950        N  0.77634729  0.81314857  0.69740172     0.75900
H951        H  0.75326085  0.83739185  0.73747373     0.09800
C952        C  0.72580683  0.94115369  0.76690973     0.03500
C953        C  0.71244875  0.94228340  0.78929573    -0.05200
C954        C  0.72188711  0.91424460  0.80745722    -0.23600
C955        C  0.74543156  0.88481000  0.80271798     0.12800
C956        C  0.75907813  0.88455422  0.78069829    -0.12700
N957        N  0.71400161  0.96806198  0.74861337     0.64400
H958        H  0.69457644  0.96507544  0.79243970     0.12300
N959        N  0.75512489  0.85341421  0.81978945     0.61100
H960        H  0.77692116  0.86163294  0.77760359     0.08500
O961        O  0.75303798  0.79792600  0.68860068    -0.40400
O962        O  0.79698730  0.78700062  0.70233515    -0.39600
O963        O  0.79777209  0.99059809  0.75438425    -0.39600
O964        O  0.77097892  0.01840537  0.72649400    -0.37300
O965        O  0.74069385  0.81817328  0.82290369    -0.38200
O966        O  0.78041626  0.85705170  0.82853618    -0.34300
O967        O  0.70121623  0.94990700  0.73151152    -0.35700
O968        O  0.71165790  0.00935738  0.75155801    -0.40000
C969        C  0.73107134  0.76516150  0.52969710    -0.13700
C970        C  0.74408902  0.72420100  0.52416779     0.16700
C971        C  0.76966289  0.71125420  0.53601720     0.03000
C972        C  0.78268053  0.73994797  0.55201140    -0.12200
C973        C  0.77059814  0.78178662  0.55700405    -0.03300
C974        C  0.74393638  0.79378111  0.54623778     0.02200
C975        C  0.73409188  0.69907511  0.50335325     0.09000
N976        N  0.78311100  0.66925860  0.53161546     0.65400
H977        H  0.80235397  0.72898025  0.56069571     0.18300
N978        N  0.73034912  0.83541731  0.55105986     0.75900
H979        H  0.71166011  0.77576096  0.52045138     0.09800
C980        C  0.70507268  0.68395400  0.50074166     0.03500
C981        C  0.69625673  0.66467496  0.47950415    -0.05200
C982        C  0.71609823  0.65979494  0.46069244    -0.23600
C983        C  0.74558247  0.67334012  0.46393861     0.12800
C984        C  0.75406500  0.69306206  0.48495966    -0.12700
N985        N  0.68440796  0.68774381  0.51949540     0.64400
H986        H  0.67368043  0.65417843  0.47766303     0.12300
N987        N  0.76703293  0.66968963  0.44573806     0.61100
H988        H  0.77628695  0.70529387  0.48657657     0.08500
O989        O  0.73424176  0.86750300  0.53722415    -0.40400
O990        O  0.71056155  0.83773777  0.56650153    -0.39600
O991        O  0.80811470  0.66773503  0.52212934    -0.39600
O992        O  0.77269801  0.63485957  0.54106480    -0.37300
O993        O  0.78563949  0.63883293  0.44648201    -0.38200
O994        O  0.77094827  0.70165329  0.43181786    -0.34300
O995        O  0.66291482  0.71375006  0.51758589    -0.35700
O996        O  0.68486292  0.65995912  0.53600854    -0.40000
C997        C  0.22547105  0.63246832  0.24037801    -0.13700
C998        C  0.23609305  0.59044220  0.24633167     0.16700
C999        C  0.23159805  0.55487840  0.23068346     0.03000
C1000       C  0.21797452  0.56245104  0.20893366    -0.12200
C1001       C  0.20854072  0.60512626  0.20255248    -0.03300
C1002       C  0.21172871  0.63997509  0.21882172     0.02200
C1003       C  0.25064511  0.58500594  0.26943968     0.09000
N1004       N  0.24049666  0.51098147  0.23668958     0.65400
H1005       H  0.21589264  0.53530184  0.19662384     0.18300
N1006       N  0.20112161  0.68333882  0.21368598     0.75900
H1007       H  0.22805514  0.65977890  0.25253605     0.09800
C1008       C  0.28130939  0.57984255  0.27168161     0.03500
C1009       C  0.29438386  0.58038639  0.29404580    -0.05200
C1010       C  0.27741889  0.58757328  0.31425946    -0.23600
C1011       C  0.24652829  0.59113885  0.31185239     0.12800
C1012       C  0.23360574  0.58978638  0.28966648    -0.12700
N1013       N  0.29966254  0.57753371  0.25139331     0.64400
H1014       H  0.31800298  0.57782057  0.29546958     0.12300
N1015       N  0.22779105  0.59604822  0.33181527     0.61100
H1016       H  0.21005331  0.59362561  0.28816939     0.08500
O1017       O  0.21902588  0.71512156  0.21238312    -0.40400
O1018       O  0.17406006  0.69131271  0.21552928    -0.39600
O1019       O  0.22237273  0.48522203  0.24643129    -0.39600
O1020       O  0.26373346  0.49532373  0.22800068    -0.37300
O1021       O  0.21721940  0.63359918  0.33661732    -0.38200
O1022       O  0.21732450  0.56200726  0.34158670    -0.34300
O1023       O  0.30404300  0.61198881  0.23935120    -0.35700
O1024       O  0.31562345  0.54397686  0.24813973    -0.40000
C1025       C  0.46746319  0.59279379  0.34038151    -0.13700
C1026       C  0.48570232  0.62450268  0.35117400     0.16700
C1027       C  0.47226494  0.65950529  0.36363583     0.03000
C1028       C  0.44173078  0.66050699  0.36641833    -0.12200
C1029       C  0.42366962  0.62630444  0.35778608    -0.03300
C1030       C  0.43687711  0.59284844  0.34392772     0.02200
C1031       C  0.51846909  0.61909424  0.35095978     0.09000
N1032       N  0.48937931  0.69228315  0.37549884     0.65400
H1033       H  0.43241874  0.68684357  0.37687956     0.18300
N1034       N  0.42009242  0.55669577  0.33484530     0.75900
H1035       H  0.47708321  0.56654270  0.33007817     0.09800
C1036       C  0.53179986  0.57849165  0.35722745     0.03500
C1037       C  0.56229410  0.57604809  0.36007535    -0.05200
C1038       C  0.58019541  0.61369072  0.35760236    -0.23600
C1039       C  0.56726840  0.65354384  0.34990680     0.12800
C1040       C  0.53680830  0.65566821  0.34620838    -0.12700
N1041       N  0.51460500  0.54025921  0.36281345     0.64400
H1042       H  0.57169636  0.54517083  0.36608236     0.12300
N1043       N  0.58469681  0.69220847  0.34587836     0.61100
H1044       H  0.52737086  0.68653221  0.34031482     0.08500
O1045       O  0.41675752  0.52218649  0.34705660    -0.40400
O1046       O  0.41345991  0.55592198  0.31339298    -0.39600
O1047       O  0.48935675  0.73176793  0.36822820    -0.39600
O1048       O  0.50023657  0.68355761  0.39528433    -0.37300
O1049       O  0.59572419  0.69870200  0.32586992    -0.38200
O1050       O  0.58440052  0.72335539  0.36064054    -0.34300
O1051       O  0.51554362  0.50677196  0.34957548    -0.35700
O1052       O  0.50318917  0.53685141  0.38289651    -0.40000
C1053       C  0.21833143  0.90819251  0.74390320    -0.13700
C1054       C  0.24859267  0.89994656  0.74611998     0.16700
C1055       C  0.26478843  0.88900085  0.72598825     0.03000
C1056       C  0.25081800  0.88601454  0.70423613    -0.12200
C1057       C  0.22041442  0.89347768  0.70173396    -0.03300
C1058       C  0.20420352  0.90528483  0.72192190     0.02200
C1059       C  0.26284681  0.90013832  0.76960557     0.09000
N1060       N  0.29545206  0.87963587  0.72741680     0.65400
H1061       H  0.26409977  0.87768060  0.68915755     0.18300
N1062       N  0.17334586  0.91281358  0.72064405     0.75900
H1063       H  0.20560500  0.91628360  0.75931203     0.09800
C1064       C  0.27902305  0.93683450  0.77786050     0.03500
C1065       C  0.29246611  0.93534612  0.80004985    -0.05200
C1066       C  0.28970131  0.89787417  0.81457057    -0.23600
C1067       C  0.27379580  0.86083435  0.80593727     0.12800
C1068       C  0.26080887  0.86225609  0.78366548    -0.12700
N1069       N  0.28061468  0.97670929  0.76444462     0.64400
H1070       H  0.30388843  0.96449339  0.80638939     0.12300
N1071       N  0.27033991  0.82149934  0.81963193     0.61100
H1072       H  0.24875176  0.83363437  0.77738177     0.08500
O1073       O  0.16364771  0.95191940  0.72131806    -0.40400
O1074       O  0.15584227  0.88067509  0.72300326    -0.39600
O1075       O  0.30375041  0.84073845  0.73199699    -0.39600
O1076       O  0.31373843  0.90730083  0.71950569    -0.37300
O1077       O  0.28743686  0.78925883  0.81635382    -0.38200
O1078       O  0.24708318  0.81573358  0.83127827    -0.34300
O1079       O  0.26335747  0.00817051  0.76906017    -0.35700
O1080       O  0.30228678  0.98345063  0.75113261    -0.40000
C1081       C  0.03446201  0.81959319  0.65638279    -0.13700
C1082       C  0.01836312  0.85895681  0.65390044     0.16700
C1083       C  0.03353597  0.89961247  0.65261514     0.03000
C1084       C  0.06423996  0.89999851  0.65199829    -0.12200
C1085       C  0.08032816  0.86030570  0.65218406    -0.03300
C1086       C  0.06520322  0.81994098  0.65543909     0.02200
C1087       C  0.98618038  0.85659854  0.64994483     0.09000
N1088       N  0.01813061  0.94032414  0.64935051     0.65400
H1089       H  0.07537283  0.93133256  0.64925446     0.18300
N1090       N  0.08071141  0.77902615  0.65736603     0.75900
H1091       H  0.02304890  0.78822012  0.65799019     0.09800
C1092       C  0.97489044  0.83267104  0.63077208     0.03500
C1093       C  0.94474648  0.83231343  0.62646603    -0.05200
C1094       C  0.92504585  0.85613157  0.64071751    -0.23600
C1095       C  0.93628348  0.87855437  0.66058855     0.12800
C1096       C  0.96664923  0.87882193  0.66492392    -0.12700
N1097       N  0.99398820  0.81081684  0.61457205     0.64400
H1098       H  0.93702678  0.81493969  0.61106127     0.12300
N1099       N  0.91725833  0.90052752  0.67675318     0.61100
H1100       H  0.97500371  0.89637519  0.68005451     0.08500
O1101       O  0.08075768  0.75221828  0.64038805    -0.40400
O1102       O  0.08924522  0.76614442  0.67724535    -0.39600
O1103       O  0.01375889  0.96552340  0.66665415    -0.39600
O1104       O  0.01404679  0.95479217  0.62887314    -0.37300
O1105       O  0.91746488  0.94226992  0.67803726    -0.38200
O1106       O  0.90428275  0.87828275  0.69237933    -0.34300
O1107       O  0.99377529  0.76908823  0.61315042    -0.35700
O1108       O  0.00788811  0.83322454  0.59952566    -0.40000
C1109       C  0.26165182  0.75156730  0.53918719    -0.13700
C1110       C  0.24969049  0.76030894  0.51703825     0.16700
C1111       C  0.22602555  0.79028471  0.51516317     0.03000
C1112       C  0.21453110  0.81027280  0.53535569    -0.12200
C1113       C  0.22687774  0.80181562  0.55735899    -0.03300
C1114       C  0.25063654  0.77232424  0.55922187     0.02200
C1115       C  0.26112726  0.73595178  0.49636643     0.09000
N1116       N  0.21374914  0.80121488  0.49287082     0.65400
H1117       H  0.19609490  0.83263272  0.53385308     0.18300
N1118       N  0.26225527  0.76046885  0.58159965     0.75900
H1119       H  0.27901929  0.72747942  0.54106126     0.09800
C1120       C  0.29130156  0.73548979  0.49096128     0.03500
C1121       C  0.30123661  0.71261810  0.47120125    -0.05200
C1122       C  0.28164884  0.68998555  0.45636628    -0.23600
C1123       C  0.25163475  0.68847150  0.46254473     0.12800
C1124       C  0.24172648  0.71121521  0.48243604    -0.12700
N1125       N  0.31206573  0.75933841  0.50488858     0.64400
H1126       H  0.32444170  0.71368885  0.46714920     0.12300
N1127       N  0.23072079  0.66532515  0.44848709     0.61100
H1128       H  0.21867721  0.70972447  0.48694430     0.08500
O1129       O  0.25171859  0.72769378  0.59248294    -0.40400
O1130       O  0.28560801  0.77835299  0.58876896    -0.39600
O1131       O  0.18815323  0.78847199  0.48781693    -0.39600
O1132       O  0.22640317  0.82940813  0.48001078    -0.37300
O1133       O  0.22204831  0.62733923  0.45465407    -0.38200
O1134       O  0.21748508  0.68554214  0.43231945    -0.34300
O1135       O  0.33083964  0.73840574  0.51672353    -0.35700
O1136       O  0.31468336  0.80069701  0.50239051    -0.40000
C1137       C  0.24216171  0.14364687  0.28350226    -0.13700
C1138       C  0.24388833  0.10467138  0.27010885     0.16700
C1139       C  0.23184636  0.06528121  0.27949511     0.03000
C1140       C  0.21814359  0.06574296  0.30166817    -0.12200
C1141       C  0.21645840  0.10489895  0.31500190    -0.03300
C1142       C  0.22854818  0.14420084  0.30552285     0.02200
C1143       C  0.25751023  0.10697097  0.24621394     0.09000
N1144       N  0.23330860  0.02456621  0.26677365     0.65400
H1145       H  0.20969181  0.03501586  0.30881216     0.18300
N1146       N  0.22686784  0.18531060  0.31791905     0.75900
H1147       H  0.25156501  0.17410877  0.27682133     0.09800
C1148       C  0.24788793  0.13886860  0.22995712     0.03500
C1149       C  0.26211340  0.14365659  0.20842396    -0.05200
C1150       C  0.28579405  0.11639926  0.20175489    -0.23600
C1151       C  0.29558763  0.08426885  0.21805456     0.12800
C1152       C  0.28155596  0.08005098  0.24007198    -0.12700
N1153       N  0.22279299  0.16582492  0.23466216     0.64400
H1154       H  0.25355206  0.16831498  0.19651342     0.12300
N1155       N  0.31981460  0.05601581  0.21277803     0.61100
H1156       H  0.28983041  0.05618938  0.25253718     0.08500
O1157       O  0.20574141  0.21118934  0.31400496    -0.40400
O1158       O  0.24905699  0.19949306  0.32879496    -0.39600
O1159       O  0.25230312  0.99607414  0.27227358    -0.39600
O1160       O  0.21234198  0.01358298  0.25358442    -0.37300
O1161       O  0.34543174  0.06813701  0.21816745    -0.38200
O1162       O  0.31518691  0.01621284  0.20706523    -0.34300
O1163       O  0.22574356  0.20727602  0.23649025    -0.35700
O1164       O  0.19745431  0.14945513  0.23251073    -0.40000
C1165       C  0.11530867  0.03444003  0.49119847    -0.13700
C1166       C  0.12959363  0.99408027  0.49494832     0.16700
C1167       C  0.14302968  0.97249767  0.47584534     0.03000
C1168       C  0.14363898  0.99293366  0.45369654    -0.12200
C1169       C  0.13129405  0.03513426  0.45029483    -0.03300
C1170       C  0.11587304  0.05490420  0.46916845     0.02200
C1171       C  0.13080096  0.97594629  0.51912099     0.09000
N1172       N  0.15792416  0.93132537  0.47902183     0.65400
H1173       H  0.15541738  0.97717033  0.43965419     0.18300
N1174       N  0.10047673  0.09573826  0.46633652     0.75900
H1175       H  0.10418125  0.05060356  0.50558443     0.09800
C1176       C  0.14797592  0.99660357  0.53649117     0.03500
C1177       C  0.14842943  0.97958331  0.55939104    -0.05200
C1178       C  0.13226525  0.94150451  0.56530495    -0.23600
C1179       C  0.11382907  0.92231315  0.54813217     0.12800
C1180       C  0.11340622  0.93936663  0.52521965    -0.12700
N1181       N  0.16648305  0.03336273  0.53076613     0.64400
H1182       H  0.16278014  0.99424158  0.57202528     0.12300
N1183       N  0.09484730  0.88613085  0.55384935     0.61100
H1184       H  0.09935946  0.92428724  0.51224408     0.08500
O1185       O  0.11260628  0.13152260  0.47248255    -0.40400
O1186       O  0.07303119  0.09475472  0.46362388    -0.39600
O1187       O  0.14690546  0.89612825  0.47093355    -0.39600
O1188       O  0.18403896  0.93123122  0.48629675    -0.37300
O1189       O  0.07062747  0.89375829  0.56379148    -0.38200
O1190       O  0.09971587  0.84824379  0.54534589    -0.34300
O1191       O  0.16065153  0.07139557  0.53866748    -0.35700
O1192       O  0.19050948  0.02680306  0.52032003    -0.40000
C1193       C  0.25836325  0.91073328  0.39681581    -0.13700
C1194       C  0.27580690  0.90669843  0.37664584     0.16700
C1195       C  0.27899578  0.94338589  0.36161353     0.03000
C1196       C  0.26430993  0.98310911  0.36675824    -0.12200
C1197       C  0.24602075  0.98663853  0.38653786    -0.03300
C1198       C  0.24330695  0.95011358  0.40173572     0.02200
C1199       C  0.28862989  0.86274476  0.37124031     0.09000
N1200       N  0.29599593  0.94022261  0.34062059     0.65400
H1201       H  0.26608027  0.01063324  0.35465024     0.18300
N1202       N  0.22497379  0.95220949  0.42200962     0.75900
H1203       H  0.25573713  0.88263404  0.40844431     0.09800
C1204       C  0.31538771  0.84956579  0.38122652     0.03500
C1205       C  0.32352960  0.80477521  0.38090337    -0.05200
C1206       C  0.30510796  0.77235506  0.37098002    -0.23600
C1207       C  0.27943935  0.78631211  0.35922266     0.12800
C1208       C  0.27143991  0.83123039  0.35948000    -0.12700
N1209       N  0.33333591  0.88079558  0.39341494     0.64400
H1210       H  0.34328035  0.79502878  0.39003865     0.12300
N1211       N  0.26077590  0.75519196  0.34760115     0.61100
H1212       H  0.25086816  0.84114196  0.35163041     0.08500
O1213       O  0.19953773  0.93580076  0.42114012    -0.40400
O1214       O  0.23634979  0.96031100  0.44169590    -0.39600
O1215       O  0.28320394  0.93825273  0.32105609    -0.39600
O1216       O  0.32318476  0.94792314  0.34130341    -0.37300
O1217       O  0.26351896  0.74931371  0.32581032    -0.38200
O1218       O  0.23817959  0.74080370  0.35791644    -0.34300
O1219       O  0.33249395  0.88250645  0.41549942    -0.35700
O1220       O  0.35299707  0.90179081  0.38246157    -0.40000
C1221       C  0.26338160  0.40957843  0.40606726    -0.13700
C1222       C  0.23629207  0.40481645  0.39468343     0.16700
C1223       C  0.22185547  0.44292006  0.38638200     0.03000
C1224       C  0.23536871  0.48456355  0.38830483    -0.12200
C1225       C  0.26347405  0.48887799  0.39807095    -0.03300
C1226       C  0.27701028  0.45109173  0.40785448     0.02200
C1227       C  0.22388979  0.35970661  0.39116685     0.09000
N1228       N  0.19470757  0.43929487  0.37409234     0.65400
H1229       H  0.22475992  0.51305157  0.38054602     0.18300
N1230       N  0.30479572  0.45433669  0.41934826     0.75900
H1231       H  0.27427427  0.38071139  0.41320828     0.09800
C1232       C  0.23962235  0.32722163  0.37864540     0.03500
C1233       C  0.22889167  0.28382252  0.37734867    -0.05200
C1234       C  0.20257279  0.27152092  0.38848700    -0.23600
C1235       C  0.18654559  0.30434051  0.40072862     0.12800
C1236       C  0.19716847  0.34804507  0.40176361    -0.12700
N1237       N  0.26682409  0.33771837  0.36741813     0.64400
H1238       H  0.24170251  0.25926719  0.36801793     0.12300
N1239       N  0.16112012  0.29305420  0.41414844     0.61100
H1240       H  0.18525835  0.37244971  0.41193283     0.08500
O1241       O  0.32740906  0.43835454  0.40979297    -0.40400
O1242       O  0.30606879  0.46806166  0.44021855    -0.39600
O1243       O  0.17104576  0.44901731  0.38435201    -0.39600
O1244       O  0.19484889  0.43355021  0.35218625    -0.37300
O1245       O  0.16401444  0.28041226  0.43509685    -0.38200
O1246       O  0.13602571  0.30325936  0.40663849    -0.34300
O1247       O  0.29038136  0.32112832  0.37493409    -0.35700
O1248       O  0.26681972  0.35841256  0.34821247    -0.40000
C1249       C  0.24747846  0.40327697  0.72300119    -0.13700
C1250       C  0.26491651  0.41045236  0.74276933     0.16700
C1251       C  0.29575318  0.41335082  0.73967739     0.03000
C1252       C  0.30831689  0.40910063  0.71710185    -0.12200
C1253       C  0.29069854  0.40056849  0.69743958    -0.03300
C1254       C  0.25984638  0.39817231  0.70070432     0.02200
C1255       C  0.25042390  0.41028830  0.76641362     0.09000
N1256       N  0.31462662  0.42025564  0.75929608     0.65400
H1257       H  0.33191296  0.41109536  0.71508468     0.18300
N1258       N  0.24042784  0.39083118  0.68144090     0.75900
H1259       H  0.22393868  0.39993554  0.72494581     0.09800
C1260       C  0.22635547  0.43811145  0.77191290     0.03500
C1261       C  0.21198870  0.43448277  0.79376429    -0.05200
C1262       C  0.22089045  0.40304286  0.81044742    -0.23600
C1263       C  0.24391002  0.37361031  0.80427534     0.12800
C1264       C  0.25844918  0.37776108  0.78268217    -0.12700
N1265       N  0.21660301  0.47098525  0.75570056     0.64400
H1266       H  0.19458651  0.45740417  0.79797563     0.12300
N1267       N  0.25216393  0.33797786  0.81938487     0.61100
H1268       H  0.27548910  0.35435398  0.77830579     0.08500
O1269       O  0.22530242  0.42270412  0.67390646    -0.40400
O1270       O  0.23285154  0.35172032  0.67641125    -0.39600
O1271       O  0.32900558  0.38810997  0.76746050    -0.39600
O1272       O  0.32139488  0.45923933  0.76521162    -0.37300
O1273       O  0.23823037  0.30184506  0.81846172    -0.38200
O1274       O  0.27630635  0.33961290  0.83012470    -0.34300
O1275       O  0.19180314  0.46699339  0.74614053    -0.35700
O1276       O  0.23029860  0.50722828  0.75408049    -0.40000
C1277       C  0.25077827  0.07595576  0.61508734    -0.13700
C1278       C  0.27655295  0.07779256  0.62832144     0.16700
C1279       C  0.28790828  0.03836498  0.63791169     0.03000
C1280       C  0.27286556  0.99807623  0.63461381    -0.12200
C1281       C  0.24600602  0.99668445  0.62254372    -0.03300
C1282       C  0.23531068  0.03617685  0.61235884     0.02200
C1283       C  0.29050775  0.12173396  0.63202935     0.09000
N1284       N  0.31342024  0.03922576  0.65240856     0.65400
H1285       H  0.28109659  0.96842185  0.64301884     0.18300
N1286       N  0.20870507  0.03665585  0.59919997     0.75900
H1287       H  0.24212844  0.10600575  0.60735351     0.09800
C1288       C  0.31320029  0.13680420  0.61728215     0.03500
C1289       C  0.32245304  0.18119906  0.61842903    -0.05200
C1290       C  0.30866663  0.21164561  0.63356593    -0.23600
C1291       C  0.28623301  0.19610492  0.64861989     0.12800
C1292       C  0.27771176  0.15137703  0.64796635    -0.12700
N1293       N  0.32487987  0.10858139  0.59945664     0.64400
H1294       H  0.33899309  0.19264489  0.60617026     0.12300
N1295       N  0.27102223  0.22562016  0.66398690     0.61100
H1296       H  0.25981849  0.14027148  0.65904438     0.08500
O1297       O  0.18485329  0.04487079  0.60957382    -0.40400
O1298       O  0.21010632  0.04098739  0.57723535    -0.39600
O1299       O  0.31139895  0.05323648  0.67319116    -0.39600
O1300       O  0.33609924  0.01842532  0.64614844    -0.37300
O1301       O  0.27628955  0.22445752  0.68567482    -0.38200
O1302       O  0.24824026  0.24500501  0.65682933    -0.34300
O1303       O  0.34505102  0.08157517  0.60429640    -0.35700
O1304       O  0.31307990  0.10759364  0.57947894    -0.40000
C1305       C  0.19462779  0.63337356  0.62611861    -0.13700
C1306       C  0.22298931  0.62346159  0.63404119     0.16700
C1307       C  0.23958239  0.65731859  0.64483391     0.03000
C1308       C  0.22861701  0.70051105  0.64602765    -0.12200
C1309       C  0.20115770  0.71146256  0.63651387    -0.03300
C1310       C  0.18352774  0.67675684  0.62738063     0.02200
C1311       C  0.23649916  0.57971082  0.62844514     0.09000
N1312       N  0.26823255  0.64877217  0.65388653     0.65400
H1313       H  0.24245836  0.72606954  0.65346493     0.18300
N1314       N  0.15523027  0.68530016  0.61769460     0.75900
H1315       H  0.18166599  0.60798572  0.61762479     0.09800
C1316       C  0.22372705  0.53898030  0.63506418     0.03500
C1317       C  0.23850345  0.49902220  0.63044731    -0.05200
C1318       C  0.26639312  0.49880813  0.61978264    -0.23600
C1319       C  0.27797423  0.53952778  0.61164771     0.12800
C1320       C  0.26290480  0.57911551  0.61581964    -0.12700
N1321       N  0.19674965  0.53765524  0.64782353     0.64400
H1322       H  0.22887711  0.46849734  0.63644334     0.12300
N1323       N  0.30537671  0.54171102  0.59953337     0.61100
H1324       H  0.27218130  0.60978614  0.60940474     0.08500
O1325       O  0.15241130  0.68937697  0.59580607    -0.40400
O1326       O  0.13271657  0.68037167  0.63032768    -0.39600
O1327       O  0.29041845  0.66413790  0.64338561    -0.39600
O1328       O  0.27091733  0.63426029  0.67449713    -0.37300
O1329       O  0.32634600  0.56314844  0.60847812    -0.38200
O1330       O  0.30667133  0.53039742  0.57826010    -0.34300
O1331       O  0.17355190  0.52572452  0.63756244    -0.35700
O1332       O  0.19721637  0.53946127  0.66991269    -0.40000
C1333       C  0.38409455  0.50024119  0.53286927    -0.13700
C1334       C  0.37813990  0.47649524  0.51221113     0.16700
C1335       C  0.37192989  0.43097271  0.51389901     0.03000
C1336       C  0.37006239  0.41065755  0.53597987    -0.12200
C1337       C  0.37465772  0.43459953  0.55698995    -0.03300
C1338       C  0.38291790  0.47971685  0.55504453     0.02200
C1339       C  0.37535821  0.50058858  0.48947063     0.09000
N1340       N  0.36571465  0.40543559  0.49339200     0.65400
H1341       H  0.36390752  0.37598827  0.53654692     0.18300
N1342       N  0.39051042  0.50519146  0.57523694     0.75900
H1343       H  0.38937922  0.53521075  0.53177527     0.09800
C1344       C  0.35217936  0.53070042  0.48615510     0.03500
C1345       C  0.34975179  0.55406364  0.46511444    -0.05200
C1346       C  0.36981223  0.54777490  0.44673545    -0.23600
C1347       C  0.39292820  0.51738757  0.44973555     0.12800
C1348       C  0.39554726  0.49393633  0.47104516    -0.12700
N1349       N  0.33017076  0.53657438  0.50373612     0.64400
H1350       H  0.33149525  0.57669789  0.46291268     0.12300
N1351       N  0.41468077  0.51205597  0.43189690     0.61100
H1352       H  0.41365477  0.47115593  0.47339549     0.08500
O1353       O  0.37466171  0.53755438  0.58109552    -0.40400
O1354       O  0.41610050  0.50223939  0.58345318    -0.39600
O1355       O  0.38638712  0.38655022  0.48259907    -0.39600
O1356       O  0.33951861  0.39567019  0.48847294    -0.37300
O1357       O  0.43334603  0.54228826  0.42837721    -0.38200
O1358       O  0.41336357  0.47946645  0.41807839    -0.34300
O1359       O  0.33080344  0.57050763  0.51665399    -0.35700
O1360       O  0.30745960  0.51261862  0.50336500    -0.40000
C1361       C  0.26126666  0.20544900  0.48731984    -0.13700
C1362       C  0.23998757  0.21917411  0.50355642     0.16700
C1363       C  0.21069070  0.20644523  0.50056789     0.03000
C1364       C  0.20274355  0.18192607  0.48085594    -0.12200
C1365       C  0.22361850  0.17026821  0.46365920    -0.03300
C1366       C  0.25335145  0.18104989  0.46742562     0.02200
C1367       C  0.24926648  0.24460204  0.52421369     0.09000
N1368       N  0.18877913  0.21853793  0.51730989     0.65400
H1369       H  0.17982609  0.17347254  0.47855769     0.18300
N1370       N  0.27549176  0.16957944  0.45076636     0.75900
H1371       H  0.28404006  0.21444752  0.48992559     0.09800
C1372       C  0.26478673  0.22317284  0.54207245     0.03500
C1373       C  0.27758945  0.24803485  0.55979872    -0.05200
C1374       C  0.27465728  0.29427317  0.56034541    -0.23600
C1375       C  0.25726119  0.31572901  0.54348340     0.12800
C1376       C  0.24477217  0.29066478  0.52530042    -0.12700
N1377       N  0.26779318  0.17606543  0.54226626     0.64400
H1378       H  0.29005295  0.23103827  0.57324047     0.12300
N1379       N  0.25349656  0.36275446  0.54393886     0.61100
H1380       H  0.23256406  0.30720831  0.51158583     0.08500
O1381       O  0.29080427  0.13536684  0.45403246    -0.40400
O1382       O  0.28334113  0.19751636  0.43553822    -0.39600
O1383       O  0.17367641  0.25297857  0.51408877    -0.39600
O1384       O  0.18128653  0.19127556  0.53298363    -0.37300
O1385       O  0.27478279  0.38797993  0.53912114    -0.38200
O1386       O  0.22988715  0.37905930  0.55160082    -0.34300
O1387       O  0.29158474  0.15860026  0.53580407    -0.35700
O1388       O  0.24835886  0.15253632  0.55197924    -0.40000
C1389       C  0.75412794  0.13409496  0.27683288    -0.13700
C1390       C  0.75706107  0.09812148  0.26149460     0.16700
C1391       C  0.77506103  0.06223910  0.26814327     0.03000
C1392       C  0.78918677  0.06256913  0.29012470    -0.12200
C1393       C  0.78586059  0.09850294  0.30561557    -0.03300
C1394       C  0.76830617  0.13472656  0.29854631     0.02200
C1395       C  0.74399630  0.10219658  0.23768804     0.09000
N1396       N  0.77986935  0.02592215  0.25254674     0.65400
H1397       H  0.80226339  0.03430674  0.29527135     0.18300
N1398       N  0.76524836  0.17314636  0.31302132     0.75900
H1399       H  0.74107253  0.16242207  0.27169367     0.09800
C1400       C  0.71942980  0.07748021  0.23015589     0.03500
C1401       C  0.70700412  0.08563615  0.20795133    -0.05200
C1402       C  0.71837936  0.11870948  0.19302360    -0.23600
C1403       C  0.74287482  0.14363322  0.20105128     0.12800
C1404       C  0.75527862  0.13502290  0.22294956    -0.12700
N1405       N  0.70617965  0.04513656  0.24508287     0.64400
H1406       H  0.68842608  0.06592024  0.20242622     0.12300
N1407       N  0.75511324  0.17908529  0.18765380     0.61100
H1408       H  0.77376559  0.15479843  0.22868510     0.08500
O1409       O  0.74171607  0.17930705  0.32422238    -0.40400
O1410       O  0.78346125  0.20447597  0.31107904    -0.39600
O1411       O  0.80002281  0.02844918  0.23741813    -0.39600
O1412       O  0.76831849  0.98880244  0.25692348    -0.37300
O1413       O  0.74795093  0.21832499  0.19261409    -0.38200
O1414       O  0.77764720  0.17222333  0.17530128    -0.34300
O1415       O  0.68730444  0.05732967  0.25993250    -0.35700
O1416       O  0.70792967  0.00465472  0.23972947    -0.40000
C1417       C  0.76440054  0.32742180  0.37698056    -0.13700
C1418       C  0.78745482  0.35731338  0.37329384     0.16700
C1419       C  0.81583570  0.34092066  0.36898425     0.03000
C1420       C  0.82091714  0.29500860  0.36964743    -0.12200
C1421       C  0.79794495  0.26483638  0.37413954    -0.03300
C1422       C  0.76926749  0.28168982  0.37741591     0.02200
C1423       C  0.78076442  0.40523117  0.37497519     0.09000
N1424       N  0.83968160  0.37035767  0.36416229     0.65400
H1425       H  0.84303041  0.28296079  0.36691032     0.18300
N1426       N  0.74515490  0.25328007  0.38304375     0.75900
H1427       H  0.74248223  0.33985217  0.38027986     0.09800
C1428       C  0.76991016  0.42803830  0.35539558     0.03500
C1429       C  0.75553948  0.46849186  0.35845025    -0.05200
C1430       C  0.75168714  0.48706100  0.38085271    -0.23600
C1431       C  0.76507879  0.46644004  0.40023896     0.12800
C1432       C  0.77934978  0.42549038  0.39717020    -0.12700
N1433       N  0.77122437  0.40879580  0.33253641     0.64400
H1434       H  0.74587841  0.48438205  0.34328398     0.12300
N1435       N  0.76204329  0.48427769  0.42331246     0.61100
H1436       H  0.78751201  0.40798717  0.41238731     0.08500
O1437       O  0.74000657  0.24385196  0.40419956    -0.40400
O1438       O  0.72594194  0.24525441  0.36772694    -0.39600
O1439       O  0.86079476  0.37293869  0.37836059    -0.39600
O1440       O  0.84244846  0.38654857  0.34389388    -0.37300
O1441       O  0.73982732  0.47434665  0.43545533    -0.38200
O1442       O  0.78386995  0.50218492  0.43307248    -0.34300
O1443       O  0.75061817  0.38408641  0.32563970    -0.35700
O1444       O  0.78979106  0.42299245  0.31791928    -0.40000
C1445       C  0.69633622  0.83734296  0.39661220    -0.13700
C1446       C  0.71352257  0.85205444  0.37771792     0.16700
C1447       C  0.72025724  0.82182834  0.35949737     0.03000
C1448       C  0.71194942  0.77728754  0.36141455    -0.12200
C1449       C  0.69613857  0.76211939  0.38089381    -0.03300
C1450       C  0.68748136  0.79290675  0.39828005     0.02200
C1451       C  0.72887056  0.89565314  0.37928906     0.09000
N1452       N  0.73632307  0.83567739  0.33922016     0.65400
H1453       H  0.71836208  0.75422605  0.34775808     0.18300
N1454       N  0.67225680  0.77872966  0.41889697     0.75900
H1455       H  0.69162211  0.85954002  0.41106166     0.09800
C1456       C  0.71428613  0.93621783  0.38328920     0.03500
C1457       C  0.73042586  0.97601443  0.38451524    -0.05200
C1458       C  0.76104559  0.97639328  0.38131497    -0.23600
C1459       C  0.77554271  0.93516033  0.37775240     0.12800
C1460       C  0.75945741  0.89580634  0.37752940    -0.12700
N1461       N  0.68306721  0.93787825  0.38508601     0.64400
H1462       H  0.71877214  0.00688188  0.38708950     0.12300
N1463       N  0.80646033  0.93210179  0.37344986     0.61100
H1464       H  0.77112163  0.86482510  0.37536513     0.08500
O1465       O  0.68585249  0.75872697  0.43495813    -0.40400
O1466       O  0.64518601  0.78628636  0.42109221    -0.39600
O1467       O  0.76139909  0.81969620  0.33521642    -0.39600
O1468       O  0.72339011  0.85706337  0.32332281    -0.37300
O1469       O  0.81603611  0.94007760  0.35310523    -0.38200
O1470       O  0.82213224  0.90960102  0.38719937    -0.34300
O1471       O  0.67124120  0.94202958  0.40497597    -0.35700
O1472       O  0.66804379  0.94480513  0.36691523    -0.40000
C1473       C  0.88565146  0.93404538  0.51224323    -0.13700
C1474       C  0.88021593  0.97955986  0.51040218     0.16700
C1475       C  0.87332362  0.00352721  0.53098776     0.03000
C1476       C  0.87028681  0.98114929  0.55253983    -0.12200
C1477       C  0.87345999  0.93483064  0.55401432    -0.03300
C1478       C  0.88243220  0.91164795  0.53359199     0.02200
C1479       C  0.87746262  0.99892135  0.48643385     0.09000
N1480       N  0.86667283  0.04973201  0.53004517     0.65400
H1481       H  0.86342957  0.99976523  0.56779931     0.18300
N1482       N  0.88742893  0.86491829  0.53390055     0.75900
H1483       H  0.89118379  0.91526458  0.49667264     0.09800
C1484       C  0.89614845  0.03242146  0.47774517     0.03500
C1485       C  0.89166197  0.04960763  0.45512399    -0.05200
C1486       C  0.86901603  0.03365897  0.44059906    -0.23600
C1487       C  0.85064971  0.99952969  0.44925570     0.12800
C1488       C  0.85527256  0.98238234  0.47180690    -0.12700
N1489       N  0.92035972  0.04830710  0.49122983     0.64400
H1490       H  0.90596919  0.07575379  0.44888974     0.12300
N1491       N  0.82571398  0.98429072  0.43634323     0.61100
H1492       H  0.84060954  0.95695058  0.47835687     0.08500
O1493       O  0.86841344  0.83910814  0.52538366    -0.40400
O1494       O  0.91278884  0.85046445  0.53822540    -0.39600
O1495       O  0.84066530  0.06160607  0.52597920    -0.39600
O1496       O  0.88425625  0.07713299  0.53910507    -0.37300
O1497       O  0.82183250  0.94321531  0.43355220    -0.38200
O1498       O  0.80456672  0.01035897  0.43283648    -0.34300
O1499       O  0.94358310  0.02568993  0.49195293    -0.35700
O1500       O  0.92118965  0.08853611  0.49724700    -0.40000
C1501       C  0.96965016  0.16378956  0.34970509    -0.13700
C1502       C  0.98595300  0.12429611  0.35076146     0.16700
C1503       C  0.97069796  0.08374999  0.35280914     0.03000
C1504       C  0.94001133  0.08360157  0.35481397    -0.12200
C1505       C  0.92383659  0.12330245  0.35592994    -0.03300
C1506       C  0.93895879  0.16368888  0.35241779     0.02200
C1507       C  0.01835545  0.12684762  0.35437352     0.09000
N1508       N  0.98607398  0.04287718  0.35580159     0.65400
H1509       H  0.92911387  0.05213946  0.35769556     0.18300
N1510       N  0.92369381  0.20496547  0.35207627     0.75900
H1511       H  0.98102602  0.19519876  0.34813004     0.09800
C1512       C  0.03912817  0.10574263  0.33971305     0.03500
C1513       C  0.06904729  0.10534771  0.34604141    -0.05200
C1514       C  0.07886646  0.12617340  0.36670288    -0.23600
C1515       C  0.05781545  0.14780555  0.38101129     0.12800
C1516       C  0.02822937  0.14809176  0.37467750    -0.12700
N1517       N  0.03035461  0.08534487  0.31821149     0.64400
H1518       H  0.08461137  0.08859191  0.33477755     0.12300
N1519       N  0.06549119  0.16627366  0.40323019     0.61100
H1520       H  0.01253339  0.16346266  0.38640277     0.08500
O1521       O  0.91809492  0.22302049  0.33265813    -0.40400
O1522       O  0.92180467  0.22753539  0.37063881    -0.39600
O1523       O  0.99866361  0.03506956  0.37503590    -0.39600
O1524       O  0.98161982  0.01141427  0.34166139    -0.37300
O1525       O  0.07023660  0.20734317  0.40497816    -0.38200
O1526       O  0.06168854  0.14354791  0.42153404    -0.34300
O1527       O  0.02333265  0.10941779  0.30105019    -0.35700
O1528       O  0.03540898  0.04472498  0.31486874    -0.40000
C1529       C  0.79704533  0.40803574  0.76385665    -0.13700
C1530       C  0.76669091  0.41466587  0.76110972     0.16700
C1531       C  0.74959479  0.42444095  0.78094053     0.03000
C1532       C  0.76263821  0.42660777  0.80303870    -0.12200
C1533       C  0.79286839  0.41928314  0.80615215    -0.03300
C1534       C  0.81026328  0.41043072  0.78618502     0.02200
C1535       C  0.75242341  0.40798715  0.73795998     0.09000
N1536       N  0.71858228  0.43012700  0.77907993     0.65400
H1537       H  0.74872761  0.43339999  0.81801507     0.18300
N1538       N  0.84076857  0.40071007  0.78843441     0.75900
H1539       H  0.81033682  0.39984163  0.74872812     0.09800
C1540       C  0.74446717  0.44396547  0.72358852     0.03500
C1541       C  0.72945702  0.43639586  0.70245703    -0.05200
C1542       C  0.72270158  0.39316078  0.69500471    -0.23600
C1543       C  0.73076896  0.35716111  0.70950384     0.12800
C1544       C  0.74521458  0.36488953  0.73082414    -0.12700
N1545       N  0.75303864  0.48809236  0.72956281     0.64400
H1546       H  0.72448967  0.46434162  0.69121095     0.12300
N1547       N  0.72436600  0.31251144  0.70284683     0.61100
H1548       H  0.75091056  0.33700407  0.74188947     0.08500
O1549       O  0.85956660  0.42969316  0.78300407    -0.40400
O1550       O  0.84882445  0.36125305  0.79181832    -0.39600
O1551       O  0.70193383  0.39693728  0.78129671    -0.39600
O1552       O  0.70783730  0.46856520  0.78016375    -0.37300
O1553       O  0.74463565  0.28813377  0.69507998    -0.38200
O1554       O  0.70034904  0.29519836  0.70900544    -0.34300
O1555       O  0.77620661  0.50412481  0.72086609    -0.35700
O1556       O  0.73503618  0.51339836  0.73968588    -0.40000
C1557       C  0.61263675  0.51045034  0.47856654    -0.13700
C1558       C  0.63524656  0.48246617  0.48604856     0.16700
C1559       C  0.65760179  0.47065317  0.47019821     0.03000
C1560       C  0.65735957  0.48735626  0.44730677    -0.12200
C1561       C  0.63542017  0.51683139  0.43993101    -0.03300
C1562       C  0.61242646  0.52757123  0.45566291     0.02200
C1563       C  0.63506698  0.46454122  0.51023068     0.09000
N1564       N  0.68190424  0.44445630  0.47771532     0.65400
H1565       H  0.67563613  0.47976472  0.43583091     0.18300
N1566       N  0.58892173  0.55608073  0.44867474     0.75900
H1567       H  0.59508112  0.51894474  0.49056958     0.09800
C1568       C  0.64324138  0.49068975  0.52960740     0.03500
C1569       C  0.64556544  0.47133375  0.55194486    -0.05200
C1570       C  0.63959853  0.42594480  0.55533502    -0.23600
C1571       C  0.62936768  0.40080681  0.53597976     0.12800
C1572       C  0.62763214  0.42006292  0.51371587    -0.12700
N1573       N  0.65051891  0.53642387  0.52659326     0.64400
H1574       H  0.65340559  0.49139890  0.56638789     0.12300
N1575       N  0.62045798  0.35563537  0.53861093     0.61100
H1576       H  0.62063595  0.40003457  0.49897331     0.08500
O1577       O  0.57456285  0.54784926  0.43027700    -0.40400
O1578       O  0.58225082  0.58931073  0.46101007    -0.39600
O1579       O  0.68445990  0.40503393  0.47064617    -0.39600
O1580       O  0.70289157  0.46265670  0.48845631    -0.37300
O1581       O  0.59462997  0.34690642  0.54514309    -0.38200
O1582       O  0.63655153  0.32498416  0.53082259    -0.34300
O1583       O  0.63112536  0.56564094  0.52962446    -0.35700
O1584       O  0.67521181  0.54725632  0.51834819    -0.40000
C1585       C  0.78972157  0.53860435  0.62871721    -0.13700
C1586       C  0.77408170  0.57653373  0.62202376     0.16700
C1587       C  0.74673689  0.57151688  0.61082670     0.03000
C1588       C  0.73497651  0.52919042  0.60770870    -0.12200
C1589       C  0.74958712  0.49107560  0.61574849    -0.03300
C1590       C  0.77771199  0.49606669  0.62581157     0.02200
C1591       C  0.78667352  0.62100453  0.62663573     0.09000
N1592       N  0.73054136  0.60893430  0.60249347     0.65400
H1593       H  0.71368048  0.52636527  0.59944492     0.18300
N1594       N  0.79367636  0.45883818  0.63441677     0.75900
H1595       H  0.81092246  0.54215152  0.63705605     0.09800
C1596       C  0.77197261  0.65245768  0.64066753     0.03500
C1597       C  0.78234956  0.69608588  0.64162496    -0.05200
C1598       C  0.80773106  0.70891662  0.62935576    -0.23600
C1599       C  0.82389230  0.67626773  0.61714684     0.12800
C1600       C  0.81310333  0.63285244  0.61572176    -0.12700
N1601       N  0.74672269  0.64054972  0.65423015     0.64400
H1602       H  0.77007431  0.72034950  0.65156199     0.12300
N1603       N  0.85019952  0.68710131  0.60475620     0.61100
H1604       H  0.82477331  0.60876460  0.60521911     0.08500
O1605       O  0.79025511  0.44677113  0.65541875    -0.40400
O1606       O  0.81525605  0.44442122  0.62284836    -0.39600
O1607       O  0.74054336  0.63155851  0.58568873    -0.39600
O1608       O  0.70409491  0.61379539  0.60855000    -0.37300
O1609       O  0.87468618  0.67914812  0.61409013    -0.38200
O1610       O  0.84905503  0.69603466  0.58318109    -0.34300
O1611       O  0.74975925  0.61531807  0.67168189    -0.35700
O1612       O  0.72328763  0.66233530  0.65204366    -0.40000
C1613       C  0.69345702  0.12957637  0.62355963    -0.13700
C1614       C  0.72218347  0.11769509  0.62955667     0.16700
C1615       C  0.74096294  0.14976872  0.63938530     0.03000
C1616       C  0.73164532  0.19364412  0.64140792    -0.12200
C1617       C  0.70372363  0.20663578  0.63362819    -0.03300
C1618       C  0.68405599  0.17366408  0.62552814     0.02200
C1619       C  0.73353837  0.07337963  0.62312009     0.09000
N1620       N  0.77005948  0.13854792  0.64652525     0.65400
H1621       H  0.74694826  0.21804610  0.64803403     0.18300
N1622       N  0.65548665  0.18480363  0.61717532     0.75900
H1623       H  0.67892306  0.10522046  0.61590107     0.09800
C1624       C  0.72160200  0.03418547  0.63251681     0.03500
C1625       C  0.73507381  0.99342767  0.62782140    -0.05200
C1626       C  0.76033028  0.99117306  0.61368464    -0.23600
C1627       C  0.77034870  0.02994330  0.60234299     0.12800
C1628       C  0.75710333  0.07065444  0.60732745    -0.12700
N1629       N  0.69710508  0.03558185  0.64813910     0.64400
H1630       H  0.72704200  0.96412169  0.63665064     0.12300
N1631       N  0.79397298  0.02846672  0.58579800     0.61100
H1632       H  0.76541797  0.10035520  0.59904851     0.08500
O1633       O  0.63329006  0.17627856  0.62963146    -0.40400
O1634       O  0.65212393  0.19628609  0.59608827    -0.39600
O1635       O  0.79179354  0.15338622  0.63524420    -0.39600
O1636       O  0.77406762  0.11941840  0.66590739    -0.37300
O1637       O  0.79030172  0.00940910  0.56632361    -0.38200
O1638       O  0.81673309  0.05146667  0.58913243    -0.34300
O1639       O  0.67220453  0.02309760  0.64110694    -0.35700
O1640       O  0.70117256  0.04281075  0.66967108    -0.40000
C1641       C  0.53736790  0.39558675  0.64224448    -0.13700
C1642       C  0.52438637  0.35811205  0.65267687     0.16700
C1643       C  0.54270530  0.32203328  0.65878815     0.03000
C1644       C  0.57290492  0.32344520  0.65367426    -0.12200
C1645       C  0.58550984  0.36082135  0.64310478    -0.03300
C1646       C  0.56753765  0.39722455  0.63754373     0.02200
C1647       C  0.49153227  0.35522490  0.65356148     0.09000
N1648       N  0.53105606  0.28366415  0.67019272     0.65400
H1649       H  0.58650057  0.29531019  0.65790395     0.18300
N1650       N  0.57910274  0.43434425  0.62495449     0.75900
H1651       H  0.52385050  0.42262045  0.63633562     0.09800
C1652       C  0.47401033  0.39089760  0.66146195     0.03500
C1653       C  0.44359575  0.39089529  0.65734768    -0.05200
C1654       C  0.42974225  0.35531369  0.64585269    -0.23600
C1655       C  0.44698417  0.31792834  0.63986859     0.12800
C1656       C  0.47746173  0.31864434  0.64325670    -0.12700
N1657       N  0.48680833  0.42772286  0.67348978     0.64400
H1658       H  0.43100889  0.41960590  0.66250526     0.12300
N1659       N  0.43405205  0.27893573  0.63004669     0.61100
H1660       H  0.49022328  0.29110111  0.63685749     0.08500
O1661       O  0.58195078  0.47122874  0.63512556    -0.40400
O1662       O  0.58189115  0.43212361  0.60297378    -0.39600
O1663       O  0.53280762  0.24634608  0.66029458    -0.39600
O1664       O  0.52444388  0.28564592  0.69164916    -0.37300
O1665       O  0.43810851  0.26989017  0.60869198    -0.38200
O1666       O  0.42357054  0.24974782  0.64351583    -0.34300
O1667       O  0.48579315  0.46586687  0.66447334    -0.35700
O1668       O  0.49402713  0.42362505  0.69471162    -0.40000
C1669       C  0.78849896  0.18303504  0.49620763    -0.13700
C1670       C  0.76151953  0.20510765  0.49675255     0.16700
C1671       C  0.74315112  0.20367890  0.47695244     0.03000
C1672       C  0.75252746  0.18189915  0.45660596    -0.12200
C1673       C  0.78035188  0.16210791  0.45549766    -0.03300
C1674       C  0.79802039  0.16155936  0.47580617     0.02200
C1675       C  0.75339002  0.23094428  0.51778236     0.09000
N1676       N  0.71536268  0.22549250  0.47700696     0.65400
H1677       H  0.73869165  0.18275783  0.44121839     0.18300
N1678       N  0.82570473  0.13944492  0.47593433     0.75900
H1679       H  0.80251623  0.18340543  0.51150382     0.09800
C1680       C  0.74340251  0.20983314  0.53826865     0.03500
C1681       C  0.73447741  0.23537731  0.55742043    -0.05200
C1682       C  0.73625989  0.28188022  0.55688311    -0.23600
C1683       C  0.74767745  0.30295598  0.53683881     0.12800
C1684       C  0.75566740  0.27738427  0.51727538    -0.12700
N1685       N  0.74149776  0.16259687  0.53965694     0.64400
H1686       H  0.72578954  0.21878523  0.57279351     0.12300
N1687       N  0.75029380  0.35009931  0.53579501     0.61100
H1688       H  0.76374023  0.29374284  0.50164560     0.08500
O1689       O  0.84912873  0.16175056  0.47651918    -0.40400
O1690       O  0.82662521  0.09805290  0.47892724    -0.39600
O1691       O  0.71352161  0.26477651  0.46959817    -0.39600
O1692       O  0.69227024  0.20313228  0.48012052    -0.37300
O1693       O  0.77160708  0.36895337  0.54578098    -0.38200
O1694       O  0.73452461  0.37181503  0.52176621    -0.34300
O1695       O  0.76401964  0.14049759  0.54487614    -0.35700
O1696       O  0.71665789  0.14411997  0.54029902    -0.40000
loop_ 
_geom_bond_atom_site_label_1 
_geom_bond_atom_site_label_2 
_geom_bond_distance 
_geom_bond_site_symmetry_2 
_ccdc_geom_bond_type 
Fe1          O17   2.063       .  S
Fe1           O7   2.118       .  S
Fe1          O14   2.107       .  S
Fe1           O6   2.026       .  S
Fe1          O12   1.951       .  S
Fe2           O5   2.057       .  S
Fe2           O9   2.071       .  S
Fe2          O13   2.049       .  S
Fe2          O18   2.064       .  S
Fe2          O12   1.955       .  S
Fe3          O21   2.078       .  S
Fe3           O8   2.078       .  S
Fe3          O15   2.053       .  S
Fe3           O4   2.093       .  S
Fe3          O12   1.962       .  S
O4           C11   1.270       .  A
O5           C19   1.270       .  A
O6           C11   1.260       .  A
O7           C10   1.285       .  A
O8           C20   1.272       .  A
O9           C22   1.266       .  A
C10          O15   1.272       .  A
C10        C1542   1.488       .  S
C11        C1589   1.487       .  S
O13          C16   1.271       .  A
O14          C16   1.281       .  A
C16        C1570   1.494       .  S
O17          C22   1.266       .  A
O18          C20   1.268       .  A
C19          O21   1.274       .  A
C19        C1617   1.484       .  S
C20        C1682   1.474       .  S
C22        C1645   1.478       .  S
Fe23         O39   2.096       .  S
Fe23         O29   2.024       .  S
Fe23         O36   2.062       .  S
Fe23         O28   2.105       .  S
Fe23         O34   1.961       .  S
Fe24         O27   2.064       .  S
Fe24         O31   2.067       .  S
Fe24         O35   2.083       .  S
Fe24         O40   2.062       .  S
Fe24         O34   1.972       .  S
Fe25         O43   2.065       .  S
Fe25         O30   2.080       .  S
Fe25         O37   2.094       .  S
Fe25         O26   2.065       .  S
Fe25         O34   1.970       .  S
O26          C33   1.275       .  A
O27          C41   1.269       .  A
O28          C33   1.286       .  A
O29          C32   1.253       .  A
O30          C42   1.274       .  A
O31          C44   1.273       .  A
C32          O37   1.269       .  A
C32        C1458   1.494   1_545  S
C33        C1393   1.490       .  S
O35          C38   1.267       .  A
O36          C38   1.264       .  A
C38        C1505   1.497       .  S
O39          C44   1.281       .  A
O40          C42   1.271       .  A
C41          O43   1.269       .  A
C41        C1673   1.480       .  S
C42        C1421   1.490       .  S
C44        C1486   1.491       .  S
Fe45         O61   2.128       .  S
Fe45         O51   2.056       .  S
Fe45         O58   2.085       .  S
Fe45         O50   2.139       .  S
Fe45         O56   1.962       .  S
Fe46         O49   2.052       .  S
Fe46         O53   2.051       .  S
Fe46         O57   2.064       .  S
Fe46         O62   2.065       .  S
Fe46         O56   1.961       .  S
Fe47         O65   2.058       .  S
Fe47         O52   2.095       .  S
Fe47         O59   2.087       .  S
Fe47         O48   2.040       .  S
Fe47         O56   1.958       .  S
O48          C55   1.269       .  A
O49          C63   1.266       .  A
O50          C55   1.288       .  A
O51          C54   1.265       .  A
O52          C64   1.275       .  A
O53          C66   1.271       .  A
C54          O59   1.270       .  A
C54        C1318   1.494       .  S
C55        C1253   1.497       .  S
O57          C60   1.267       .  A
O58          C60   1.272       .  A
C60        C1654   1.499       .  S
O61          C66   1.284       .  A
O62          C64   1.272       .  A
C63          O65   1.266       .  A
C63        C1374   1.463       .  S
C64        C1290   1.489       .  S
C66        C1337   1.508       .  S
Fe67         O83   2.088       .  S
Fe67         O73   2.115       .  S
Fe67         O80   2.102       .  S
Fe67         O72   2.060       .  S
Fe67         O78   1.973       .  S
Fe68         O71   2.070       .  S
Fe68         O75   2.051       .  S
Fe68         O79   2.054       .  S
Fe68         O84   2.038       .  S
Fe68         O78   1.968       .  S
Fe69         O87   2.069       .  S
Fe69         O74   2.078       .  S
Fe69         O81   2.058       .  S
Fe69         O70   2.073       .  S
Fe69         O78   1.971       .  S
O70          C77   1.265       .  A
O71          C85   1.271       .  A
O72          C77   1.262       .  A
O73          C76   1.286       .  A
O74          C86   1.273       .  A
O75          C88   1.263       .  A
C76          O81   1.275       .  A
C76        C1141   1.491       .  S
C77        C1197   1.478   1_545  S
O79          C82   1.270       .  A
O80          C82   1.280       .  A
C82        C1169   1.492       .  S
O83          C88   1.270       .  A
O84          C86   1.265       .  A
C85          O87   1.270       .  A
C85        C1234   1.487       .  S
C86        C1365   1.478       .  S
C88        C1514   1.498       .  S
Fe89        O105   2.063       .  S
Fe89         O95   2.121       .  S
Fe89        O102   2.101       .  S
Fe89         O94   2.047       .  S
Fe89        O100   1.977       .  S
Fe90         O93   2.066       .  S
Fe90         O97   2.064       .  S
Fe90        O101   2.057       .  S
Fe90        O106   2.064       .  S
Fe90        O100   1.984       .  S
Fe91        O109   2.075       .  S
Fe91         O96   2.054       .  S
Fe91        O103   2.049       .  S
Fe91         O92   2.086       .  S
Fe91        O100   1.970       .  S
O92          C99   1.269       .  A
O93         C107   1.270       .  A
O94          C99   1.261       .  A
O95          C98   1.284       .  A
O96         C108   1.267       .  A
O97         C110   1.266       .  A
C98         O103   1.272       .  A
C98        C1057   1.500       .  S
C99        C1281   1.486       .  S
O101        C104   1.270       .  A
O102        C104   1.279       .  A
C104       C1178   1.489       .  S
O105        C110   1.266       .  A
O106        C108   1.267       .  A
C107        O109   1.273       .  A
C107       C1309   1.494       .  S
C108       C1113   1.467       .  S
C110       C1085   1.483       .  S
Fe111       O127   2.112       .  S
Fe111       O117   2.046       .  S
Fe111       O124   2.078       .  S
Fe111       O116   2.114       .  S
Fe111       O122   1.965       .  S
Fe112       O115   2.060       .  S
Fe112       O119   2.048       .  S
Fe112       O123   2.065       .  S
Fe112       O128   2.064       .  S
Fe112       O122   1.957       .  S
Fe113       O131   2.062       .  S
Fe113       O118   2.098       .  S
Fe113       O125   2.082       .  S
Fe113       O114   2.043       .  S
Fe113       O122   1.958       .  S
O114        C121   1.270       .  A
O115        C129   1.265       .  A
O116        C121   1.283       .  A
O117        C120   1.264       .  A
O118        C130   1.279       .  A
O119        C132   1.271       .  A
C120        O125   1.270       .  A
C120       C1225   1.482       .  S
C121       C1010   1.491       .  S
O123        C126   1.266       .  A
O124        C126   1.267       .  A
C126       C1029   1.500       .  S
O127        C132   1.282       .  A
O128        C130   1.276       .  A
C129        O131   1.264       .  A
C129       C1122   1.485       .  S
C130       C1206   1.489       .  S
C132       C1346   1.483       .  S
Fe133       O149   2.115       .  S
Fe133       O139   2.050       .  S
Fe133       O146   2.076       .  S
Fe133       O138   2.119       .  S
Fe133       O144   1.960       .  S
Fe134       O137   2.055       .  S
Fe134       O141   2.052       .  S
Fe134       O145   2.061       .  S
Fe134       O150   2.061       .  S
Fe134       O144   1.954       .  S
Fe135       O153   2.069       .  S
Fe135       O140   2.071       .  S
Fe135       O147   2.076       .  S
Fe135       O136   2.050       .  S
Fe135       O144   1.962       .  S
O136        C143   1.269       .  A
O137        C151   1.268       .  A
O138        C143   1.283       .  A
O139        C142   1.265       .  A
O140        C152   1.273       .  A
O141        C154   1.270       .  A
C142        O147   1.270       .  A
C142       C1626   1.479       .  S
C143        C945   1.497       .  S
O145        C148   1.267       .  A
O146        C148   1.268       .  A
C148       C1094   1.494       .  S
O149        C154   1.281       .  A
O150        C152   1.271       .  A
C151        O153   1.269       .  A
C151        C973   1.483       .  S
C152       C1598   1.481       .  S
C154       C1477   1.499       .  S
Fe155       O171   2.081       .  S
Fe155       O161   2.089       .  S
Fe155       O168   2.074       .  S
Fe155       O160   2.057       .  S
Fe155       O166   1.958       .  S
Fe156       O159   2.063       .  S
Fe156       O163   2.071       .  S
Fe156       O167   2.075       .  S
Fe156       O172   2.064       .  S
Fe156       O166   1.962       .  S
Fe157       O175   2.072       .  S
Fe157       O162   2.057       .  S
Fe157       O169   2.061       .  S
Fe157       O158   2.086       .  S
Fe157       O166   1.950       .  S
O158        C165   1.267       .  A
O159        C173   1.270       .  A
O160        C165   1.264       .  A
O161        C164   1.281       .  A
O162        C174   1.268       .  A
O163        C176   1.266       .  A
C164        O169   1.275       .  A
C164        C926   1.494       .  S
C165       C1430   1.482       .  S
O167        C170   1.274       .  A
O168        C170   1.276       .  A
C170       C1561   1.485       .  S
O171        C176   1.269       .  A
O172        C174   1.269       .  A
C173        O175   1.273       .  A
C173       C1449   1.481       .  S
C174        C982   1.488       .  S
C176       C1038   1.489       .  S
Fe177       O193   2.064       .  S
Fe177       O183   2.098       .  S
Fe177       O190   2.092       .  S
Fe177       O182   2.046       .  S
Fe177       O188   1.965       .  S
Fe178       O181   2.072       .  S
Fe178       O185   2.069       .  S
Fe178       O189   2.076       .  S
Fe178       O194   2.060       .  S
Fe178       O188   1.964       .  S
Fe179       O197   2.061       .  S
Fe179       O184   2.069       .  S
Fe179       O191   2.072       .  S
Fe179       O180   2.074       .  S
Fe179       O188   1.955       .  S
O180        C187   1.265       .  A
O181        C195   1.272       .  A
O182        C187   1.259       .  A
O183        C186   1.282       .  A
O184        C196   1.269       .  A
O185        C198   1.265       .  A
C186        O191   1.277       .  A
C186       C1533   1.492       .  S
C187        C805   1.473       .  S
O189        C192   1.277       .  A
O190        C192   1.280       .  A
C192        C786   1.497       .  S
O193        C198   1.263       .  A
O194        C196   1.267       .  A
C195        O197   1.273       .  A
C195        C833   1.492       .  S
C196        C889   1.491       .  S
C198        C861   1.491       .  S
Fe199       O215   2.112       .  S
Fe199       O205   2.039       .  S
Fe199       O212   2.083       .  S
Fe199       O204   2.108       .  S
Fe199       O210   1.972       .  S
Fe200       O203   2.054       .  S
Fe200       O207   2.068       .  S
Fe200       O211   2.053       .  S
Fe200       O216   2.073       .  S
Fe200       O210   1.968       .  S
Fe201       O219   2.071       .  S
Fe201       O206   2.079       .  S
Fe201       O213   2.074       .  S
Fe201       O202   2.056       .  S
Fe201       O210   1.965       .  S
O202        C209   1.272       .  A
O203        C217   1.263       .  A
O204        C209   1.284       .  A
O205        C208   1.262       .  A
O206        C218   1.273       .  A
O207        C220   1.276       .  A
C208        O213   1.266       .  A
C208        C702   1.484       .  S
C209       C1402   1.502       .  S
O211        C214   1.264       .  A
O212        C214   1.266       .  A
C214        C749   1.496       .  S
O215        C220   1.283       .  A
O216        C218   1.275       .  A
C217        O219   1.267       .  A
C217        C898   1.472       .  S
C218        C665   1.498       .  S
C220        C721   1.497       .  S
Fe221       O237   2.102       .  S
Fe221       O227   2.050       .  S
Fe221       O234   2.082       .  S
Fe221       O226   2.108       .  S
Fe221       O232   1.967       .  S
Fe222       O225   2.040       .  S
Fe222       O229   2.065       .  S
Fe222       O233   2.052       .  S
Fe222       O238   2.064       .  S
Fe222       O232   1.967       .  S
Fe223       O241   2.062       .  S
Fe223       O228   2.049       .  S
Fe223       O235   2.067       .  S
Fe223       O224   2.064       .  S
Fe223       O232   1.966       .  S
O224        C231   1.271       .  A
O225        C239   1.263       .  A
O226        C231   1.283       .  A
O227        C230   1.264       .  A
O228        C240   1.271       .  A
O229        C242   1.274       .  A
C230        O235   1.265       .  A
C230        C590   1.473       .  S
C231       C1262   1.500       .  S
O233        C236   1.262       .  A
O234        C236   1.269       .  A
C236        C870   1.494       .  S
O237        C242   1.280       .  A
O238        C240   1.271       .  A
C239        O241   1.265       .  A
C239        C646   1.475       .  S
C240        C553   1.483       .  S
C242        C609   1.500       .  S
Fe243       O259   2.079       .  S
Fe243       O249   2.124       .  S
Fe243       O256   2.108       .  S
Fe243       O248   2.070       .  S
Fe243       O254   1.967       .  S
Fe244       O247   2.061       .  S
Fe244       O251   2.059       .  S
Fe244       O255   2.052       .  S
Fe244       O260   2.069       .  S
Fe244       O254   1.966       .  S
Fe245       O263   2.094       .  S
Fe245       O250   2.070       .  S
Fe245       O257   2.045       .  S
Fe245       O246   2.091       .  S
Fe245       O254   1.954       .  S
O246        C253   1.271       .  A
O247        C261   1.268       .  A
O248        C253   1.267       .  A
O249        C252   1.284       .  A
O250        C262   1.270       .  A
O251        C264   1.266       .  A
C252        O257   1.273       .  A
C252       C1150   1.504       .  S
C253        C497   1.496       .  S
O255        C258   1.270       .  A
O256        C258   1.281       .  A
C258        C469   1.493       .  S
O259        C264   1.270       .  A
O260        C262   1.269       .  A
C261        O263   1.276       .  A
C261        C525   1.497       .  S
C262        C637   1.471       .  S
C264        C758   1.489       .  S
Fe265       O281   2.067       .  S
Fe265       O271   2.115       .  S
Fe265       O278   2.110       .  S
Fe265       O270   2.034       .  S
Fe265       O276   1.962       .  S
Fe266       O269   2.061       .  S
Fe266       O273   2.052       .  S
Fe266       O277   2.051       .  S
Fe266       O282   2.051       .  S
Fe266       O276   1.964       .  S
Fe267       O285   2.059       .  S
Fe267       O272   2.072       .  S
Fe267       O279   2.057       .  S
Fe267       O268   2.063       .  S
Fe267       O276   1.970       .  S
O268        C275   1.264       .  A
O269        C283   1.270       .  A
O270        C275   1.260       .  A
O271        C274   1.284       .  A
O272        C284   1.270       .  A
O273        C286   1.262       .  A
C274        O279   1.272       .  A
C274       C1066   1.497       .  S
C275        C562   1.464   1_565  S
O277        C280   1.271       .  A
O278        C280   1.282       .  A
C280        C478   1.489       .  S
O281        C286   1.266       .  A
O282        C284   1.266       .  A
C283        O285   1.269       .  A
C283        C581   1.468       .  S
C284        C441   1.479       .  S
C286        C413   1.493       .  S
Fe287       O303   2.086       .  S
Fe287       O293   2.053       .  S
Fe287       O300   2.079       .  S
Fe287       O292   2.105       .  S
Fe287       O298   1.972       .  S
Fe288       O291   2.033       .  S
Fe288       O295   2.078       .  S
Fe288       O299   2.047       .  S
Fe288       O304   2.081       .  S
Fe288       O298   1.966       .  S
Fe289       O307   2.082       .  S
Fe289       O294   2.089       .  S
Fe289       O301   2.095       .  S
Fe289       O290   2.064       .  S
Fe289       O298   1.972       .  S
O290        C297   1.275       .  A
O291        C305   1.263       .  A
O292        C297   1.281       .  A
O293        C296   1.264       .  A
O294        C306   1.273       .  A
O295        C308   1.274       .  A
C296        O301   1.271       .  A
C296        C534   1.490       .  S
C297       C1001   1.485       .  S
O299        C302   1.264       .  A
O300        C302   1.270       .  A
C302        C385   1.481       .  S
O303        C308   1.276       .  A
O304        C306   1.275       .  A
C305        O307   1.274       .  A
C305        C450   1.469       .  S
C306        C506   1.500       .  S
C308        C618   1.498       .  S
Fe309       O325   2.091       .  S
Fe309       O315   2.046       .  S
Fe309       O322   2.072       .  S
Fe309       O314   2.107       .  S
Fe309       O320   1.951       .  S
Fe310       O313   2.054       .  S
Fe310       O317   2.086       .  S
Fe310       O321   2.065       .  S
Fe310       O326   2.075       .  S
Fe310       O320   1.960       .  S
Fe311       O329   2.059       .  S
Fe311       O316   2.061       .  S
Fe311       O323   2.083       .  S
Fe311       O312   2.075       .  S
Fe311       O320   1.947       .  S
O312        C319   1.275       .  A
O313        C327   1.266       .  A
O314        C319   1.286       .  A
O315        C318   1.262       .  A
O316        C328   1.273       .  A
O317        C330   1.276       .  A
C318        O323   1.267       .  A
C318        C842   1.476   1_565  S
C319        C954   1.501       .  S
O321        C324   1.264       .  A
O322        C324   1.267       .  A
C324        C422   1.483       .  S
O325        C330   1.280       .  A
O326        C328   1.272       .  A
C327        O329   1.269       .  A
C327        C357   1.473       .  S
C328        C814   1.491       .  S
C330        C730   1.499       .  S
Fe331       O347   2.090       .  S
Fe331       O337   2.085       .  S
Fe331       O344   2.094       .  S
Fe331       O336   2.060       .  S
Fe331       O342   1.971       .  S
Fe332       O335   2.053       .  S
Fe332       O339   2.045       .  S
Fe332       O343   2.053       .  S
Fe332       O348   2.048       .  S
Fe332       O342   1.966       .  S
Fe333       O351   2.084       .  S
Fe333       O338   2.078       .  S
Fe333       O345   2.069       .  S
Fe333       O334   2.083       .  S
Fe333       O342   1.975       .  S
O334        C341   1.267       .  A
O335        C349   1.270       .  A
O336        C341   1.266       .  A
O337        C340   1.279       .  A
O338        C350   1.270       .  A
O339        C352   1.262       .  A
C340        O345   1.275       .  A
C340        C917   1.484       .  S
C341        C674   1.480       .  S
O343        C346   1.272       .  A
O344        C346   1.280       .  A
C346        C777   1.480       .  S
O347        C352   1.268       .  A
O348        C350   1.265       .  A
C349        O351   1.273       .  A
C349        C693   1.480       .  S
C350        C366   1.482       .  S
C352        C394   1.494       .  S
C353        C354   1.402       .  A
C353        C358   1.402       .  A
C353        H363   1.082   1_556  S
C354        C359   1.470   1_556  S
C354        C355   1.404       .  A
C355        C356   1.393       .  A
C355        N360   1.429       .  S
C356        C357   1.405       .  A
C356        H361   1.083       .  S
C357        C358   1.412       .  A
C358        N362   1.429       .  S
C359        C364   1.402       .  A
C359        C368   1.402       .  A
N360        O375   1.262       .  A
N360        O376   1.262       .  A
N362        O373   1.262       .  A
N362        O374   1.262       .  A
C364        C365   1.393       .  A
C364        N369   1.430       .  S
C365        C366   1.410       .  A
C365        H370   1.084       .  S
C366        C367   1.412       .  A
C367        C368   1.405       .  A
C367        N371   1.428       .  S
C368        H372   1.083       .  S
N369        O379   1.262       .  A
N369        O380   1.262       .  A
N371        O377   1.262       .  A
N371        O378   1.262       .  A
C381        C382   1.404       .  A
C381        C386   1.405       .  A
C381        H391   1.084       .  S
C382        C387   1.486   1_455  S
C382        C383   1.410       .  A
C383        C384   1.401       .  A
C383        N388   1.429       .  S
C384        C385   1.404       .  A
C384        H389   1.084       .  S
C385        C386   1.414       .  A
C386        N390   1.431       .  S
C387        C392   1.408       .  A
C387        C396   1.404       .  A
N388        O403   1.262       .  A
N388        O404   1.262       .  A
N390        O401   1.262       .  A
N390        O402   1.262       .  A
C392        C393   1.399       .  A
C392        N397   1.430       .  S
C393        C394   1.409       .  A
C393        H398   1.082       .  S
C394        C395   1.414       .  A
C395        C396   1.409       .  A
C395        N399   1.427       .  S
C396        H400   1.082       .  S
N397        O407   1.262       .  A
N397        O408   1.262       .  A
N399        O405   1.262       .  A
N399        O406   1.262       .  A
C409        C410   1.399       .  A
C409        C414   1.400       .  A
C409        H419   1.082       .  S
C410        C415   1.484       .  S
C410        C411   1.409       .  A
C411        C412   1.403       .  A
C411        N416   1.431       .  S
C412        C413   1.409       .  A
C412        H417   1.081       .  S
C413        C414   1.420       .  A
C414        N418   1.430       .  S
C415        C420   1.410       .  A
C415        C424   1.404       .  A
N416        O431   1.262       .  A
N416        O432   1.262       .  A
N418        O429   1.262       .  A
N418        O430   1.262       .  A
C420        C421   1.399       .  A
C420        N425   1.431       .  S
C421        C422   1.406       .  A
C421        H426   1.084       .  S
C422        C423   1.411       .  A
C423        C424   1.404       .  A
C423        N427   1.428       .  S
C424        H428   1.084       .  S
N425        O435   1.262       .  A
N425        O436   1.262       .  A
N427        O433   1.262       .  A
N427        O434   1.262       .  A
C437        C438   1.405   1_556  A
C437        C442   1.404       .  A
C437        H447   1.083       .  S
C438        C443   1.475       .  S
C438        C439   1.402       .  A
C439        C440   1.394   1_554  A
C439        N444   1.428       .  S
C440        C441   1.407       .  A
C440        H445   1.084       .  S
C441        C442   1.412       .  A
C442        N446   1.429       .  S
C443        C448   1.403       .  A
C443        C452   1.408       .  A
N444        O459   1.262       .  A
N444        O460   1.262       .  A
N446        O457   1.262       .  A
N446        O458   1.262       .  A
C448        C449   1.392       .  A
C448        N453   1.430       .  S
C449        C450   1.406       .  A
C449        H454   1.086       .  S
C450        C451   1.405       .  A
C451        C452   1.404       .  A
C451        N455   1.429       .  S
C452        H456   1.085       .  S
N453        O463   1.262       .  A
N453        O464   1.262       .  A
N455        O461   1.261       .  A
N455        O462   1.262       .  A
C465        C466   1.402       .  A
C465        C470   1.404       .  A
C465        H475   1.083       .  S
C466        C471   1.494   1_554  S
C466        C467   1.414       .  A
C467        C468   1.404       .  A
C467        N472   1.429   1_545  S
C468        C469   1.404       .  A
C468        H473   1.083       .  S
C469        C470   1.418       .  A
C470        N474   1.430       .  S
C471        C476   1.415       .  A
C471        C480   1.402   1_545  A
N472        O487   1.262       .  A
N472        O488   1.262       .  A
N474        O485   1.262       .  A
N474        O486   1.262       .  A
C476        C477   1.407       .  A
C476        N481   1.429       .  S
C477        C478   1.405   1_545  A
C477        H482   1.084       .  S
C478        C479   1.414       .  A
C479        C480   1.402       .  A
C479        N483   1.429       .  S
C480        H484   1.083   1_556  S
N481        O491   1.262       .  A
N481        O492   1.262       .  A
N483        O489   1.262       .  A
N483        O490   1.262       .  A
C493        C494   1.404       .  A
C493        C498   1.406       .  A
C493        H503   1.084       .  S
C494        C499   1.492       .  S
C494        C495   1.409       .  A
C495        C496   1.408   1_565  A
C495        N500   1.428       .  S
C496        C497   1.409       .  A
C496        H501   1.084       .  S
C497        C498   1.414   1_545  A
C498        N502   1.429       .  S
C499        C504   1.409       .  A
C499        C508   1.400       .  A
N500        O515   1.262       .  A
N500        O516   1.262       .  A
N502        O513   1.262       .  A
N502        O514   1.262       .  A
C504        C505   1.409       .  A
C504        N509   1.428       .  S
C505        C506   1.410       .  A
C505        H510   1.083       .  S
C506        C507   1.418       .  A
C507        C508   1.405       .  A
C507        N511   1.427       .  S
C508        H512   1.083       .  S
N509        O519   1.262       .  A
N509        O520   1.262       .  A
N511        O517   1.262       .  A
N511        O518   1.261       .  A
C521        C522   1.403       .  A
C521        C526   1.409       .  A
C521        H531   1.082       .  S
C522        C527   1.489       .  S
C522        C523   1.407       .  A
C523        C524   1.400       .  A
C523        N528   1.429       .  S
C524        C525   1.408       .  A
C524        H529   1.082       .  S
C525        C526   1.421       .  A
C526        N530   1.430       .  S
C527        C532   1.409       .  A
C527        C536   1.402       .  A
N528        O543   1.262       .  A
N528        O544   1.262       .  A
N530        O541   1.261       .  A
N530        O542   1.262       .  A
C532        C533   1.409       .  A
C532        N537   1.429       .  S
C533        C534   1.408       .  A
C533        H538   1.082       .  S
C534        C535   1.414       .  A
C535        C536   1.402       .  A
C535        N539   1.430       .  S
C536        H540   1.082       .  S
N537        O547   1.262       .  A
N537        O548   1.262       .  A
N539        O545   1.262       .  A
N539        O546   1.262       .  A
C549        C550   1.399       .  A
C549        C554   1.399       .  A
C549        H559   1.085       .  S
C550        C555   1.471       .  S
C550        C551   1.407       .  A
C551        C552   1.393       .  A
C551        N556   1.431       .  S
C552        C553   1.407       .  A
C552        H557   1.084       .  S
C553        C554   1.417       .  A
C554        N558   1.429       .  S
C555        C560   1.410       .  A
C555        C564   1.400       .  A
N556        O571   1.262       .  A
N556        O572   1.262       .  A
N558        O569   1.262       .  A
N558        O570   1.262       .  A
C560        C561   1.395       .  A
C560        N565   1.431       .  S
C561        C562   1.401       .  A
C561        H566   1.082       .  S
C562        C563   1.409       .  A
C563        C564   1.398       .  A
C563        N567   1.429   1_545  S
C564        H568   1.082       .  S
N565        O575   1.262       .  A
N565        O576   1.262       .  A
N567        O573   1.261       .  A
N567        O574   1.262       .  A
C577        C578   1.405       .  A
C577        C582   1.404       .  A
C577        H587   1.084       .  S
C578        C583   1.472       .  S
C578        C579   1.405       .  A
C579        C580   1.390       .  A
C579        N584   1.430       .  S
C580        C581   1.402       .  A
C580        H585   1.085       .  S
C581        C582   1.408       .  A
C582        N586   1.429       .  S
C583        C588   1.405       .  A
C583        C592   1.404       .  A
N584        O599   1.262       .  A
N584        O600   1.262       .  A
N586        O597   1.262       .  A
N586        O598   1.262       .  A
C588        C589   1.394       .  A
C588        N593   1.429       .  S
C589        C590   1.405       .  A
C589        H594   1.085       .  S
C590        C591   1.410       .  A
C591        C592   1.402       .  A
C591        N595   1.428       .  S
C592        H596   1.084       .  S
N593        O603   1.262       .  A
N593        O604   1.262       .  A
N595        O601   1.262       .  A
N595        O602   1.262       .  A
C605        C606   1.406       .  A
C605        C610   1.408       .  A
C605        H615   1.083       .  S
C606        C611   1.498   1_556  S
C606        C607   1.411       .  A
C607        C608   1.404       .  A
C607        N612   1.431   1_556  S
C608        C609   1.411       .  A
C608        H613   1.082       .  S
C609        C610   1.415       .  A
C610        N614   1.429       .  S
C611        C616   1.416       .  A
C611        C620   1.405       .  A
N612        O627   1.262       .  A
N612        O628   1.262       .  A
N614        O625   1.261       .  A
N614        O626   1.262       .  A
C616        C617   1.407       .  A
C616        N621   1.432       .  S
C617        C618   1.407       .  A
C617        H622   1.079       .  S
C618        C619   1.415       .  A
C619        C620   1.406       .  A
C619        N623   1.428       .  S
C620        H624   1.082       .  S
N621        O631   1.262       .  A
N621        O632   1.262       .  A
N623        O629   1.262       .  A
N623        O630   1.262       .  A
C633        C634   1.393       .  A
C633        C638   1.391       .  A
C633        H643   1.086       .  S
C634        C639   1.471       .  S
C634        C635   1.410       .  A
C635        C636   1.405       .  A
C635        N640   1.429       .  S
C636        C637   1.403       .  A
C636        H641   1.085       .  S
C637        C638   1.411       .  A
C638        N642   1.426       .  S
C639        C644   1.405   1_554  A
C639        C648   1.401   1_554  A
N640        O655   1.262   1_554  A
N640        O656   1.262   1_554  A
N642        O653   1.261       .  A
N642        O654   1.261       .  A
C644        C645   1.395       .  A
C644        N649   1.429   1_556  S
C645        C646   1.405       .  A
C645        H650   1.082       .  S
C646        C647   1.414       .  A
C647        C648   1.399       .  A
C647        N651   1.429       .  S
C648        H652   1.082       .  S
N649        O659   1.262       .  A
N649        O660   1.262       .  A
N651        O657   1.262       .  A
N651        O658   1.262       .  A
C661        C662   1.399       .  A
C661        C666   1.398       .  A
C661        H671   1.083       .  S
C662        C667   1.492       .  S
C662        C663   1.411       .  A
C663        C664   1.408       .  A
C663        N668   1.429       .  S
C664        C665   1.411       .  A
C664        H669   1.083       .  S
C665        C666   1.421       .  A
C666        N670   1.430       .  S
C667        C672   1.411       .  A
C667        C676   1.409       .  A
N668        O683   1.262       .  A
N668        O684   1.262       .  A
N670        O681   1.262       .  A
N670        O682   1.261       .  A
C672        C673   1.398       .  A
C672        N677   1.430       .  S
C673        C674   1.402       .  A
C673        H678   1.083       .  S
C674        C675   1.411       .  A
C675        C676   1.411       .  A
C675        N679   1.430       .  S
C676        H680   1.080       .  S
N677        O687   1.262       .  A
N677        O688   1.262       .  A
N679        O685   1.262       .  A
N679        O686   1.262       .  A
C689        C690   1.401       .  A
C689        C694   1.396       .  A
C689        H699   1.083       .  S
C690        C695   1.479       .  S
C690        C691   1.406       .  A
C691        C692   1.401       .  A
C691        N696   1.428       .  S
C692        C693   1.408       .  A
C692        H697   1.083       .  S
C693        C694   1.410       .  A
C694        N698   1.426       .  S
C695        C700   1.407       .  A
C695        C704   1.403       .  A
N696        O711   1.262       .  A
N696        O712   1.262       .  A
N698        O709   1.262       .  A
N698        O710   1.261       .  A
C700        C701   1.393       .  A
C700        N705   1.431       .  S
C701        C702   1.406   1_565  A
C701        H706   1.074       .  S
C702        C703   1.415       .  A
C703        C704   1.406   1_545  A
C703        N707   1.429       .  S
C704        H708   1.079       .  S
N705        O715   1.262       .  A
N705        O716   1.262       .  A
N707        O713   1.262       .  A
N707        O714   1.262       .  A
C717        C718   1.402       .  A
C717        C722   1.407       .  A
C717        H727   1.082   1_545  S
C718        C723   1.492   1_554  S
C718        C719   1.408       .  A
C719        C720   1.407       .  A
C719        N724   1.428   1_554  S
C720        C721   1.409       .  A
C720        H725   1.082       .  S
C721        C722   1.415       .  A
C722        N726   1.426       .  S
C723        C728   1.410       .  A
C723        C732   1.401   1_545  A
N724        O739   1.262   1_556  A
N724        O740   1.261       .  A
N726        O737   1.262       .  A
N726        O738   1.262   1_545  A
C728        C729   1.406       .  A
C728        N733   1.429       .  S
C729        C730   1.408   1_545  A
C729        H734   1.084       .  S
C730        C731   1.420       .  A
C731        C732   1.407       .  A
C731        N735   1.429       .  S
C732        H736   1.084       .  S
N733        O743   1.262       .  A
N733        O744   1.262       .  A
N735        O741   1.262       .  A
N735        O742   1.262       .  A
C745        C746   1.408       .  A
C745        C750   1.411       .  A
C745        H755   1.084       .  S
C746        C751   1.498       .  S
C746        C747   1.413       .  A
C747        C748   1.395       .  A
C747        N752   1.431       .  S
C748        C749   1.405       .  A
C748        H753   1.084       .  S
C749        C750   1.416       .  A
C750        N754   1.428       .  S
C751        C756   1.414       .  A
C751        C760   1.406       .  A
N752        O767   1.262       .  A
N752        O768   1.262       .  A
N754        O765   1.262       .  A
N754        O766   1.262       .  A
C756        C757   1.405       .  A
C756        N761   1.428       .  S
C757        C758   1.405       .  A
C757        H762   1.084       .  S
C758        C759   1.414       .  A
C759        C760   1.401       .  A
C759        N763   1.430       .  S
C760        H764   1.083       .  S
N761        O771   1.262       .  A
N761        O772   1.262       .  A
N763        O769   1.262       .  A
N763        O770   1.262       .  A
C773        C774   1.406       .  A
C773        C778   1.405       .  A
C773        H783   1.083       .  S
C774        C779   1.485   1_554  S
C774        C775   1.407       .  A
C775        C776   1.401       .  A
C775        N780   1.428       .  S
C776        C777   1.405       .  A
C776        H781   1.083       .  S
C777        C778   1.410       .  A
C778        N782   1.430       .  S
C779        C784   1.404       .  A
C779        C788   1.402       .  A
N780        O795   1.262   1_554  A
N780        O796   1.262       .  A
N782        O793   1.261       .  A
N782        O794   1.262       .  A
C784        C785   1.402       .  A
C784        N789   1.428       .  S
C785        C786   1.412       .  A
C785        H790   1.082       .  S
C786        C787   1.417       .  A
C787        C788   1.406       .  A
C787        N791   1.428       .  S
C788        H792   1.083       .  S
N789        O799   1.262   1_556  A
N789        O800   1.262   1_556  A
N791        O797   1.262       .  A
N791        O798   1.262       .  A
C801        C802   1.399       .  A
C801        C806   1.394       .  A
C801        H811   1.083       .  S
C802        C807   1.482       .  S
C802        C803   1.413       .  A
C803        C804   1.404       .  A
C803        N808   1.428       .  S
C804        C805   1.402       .  A
C804        H809   1.083       .  S
C805        C806   1.413       .  A
C806        N810   1.430       .  S
C807        C812   1.409       .  A
C807        C816   1.401       .  A
N808        O823   1.262       .  A
N808        O824   1.262       .  A
N810        O821   1.262       .  A
N810        O822   1.261       .  A
C812        C813   1.396       .  A
C812        N817   1.430       .  S
C813        C814   1.407       .  A
C813        H818   1.083       .  S
C814        C815   1.418       .  A
C815        C816   1.403       .  A
C815        N819   1.428       .  S
C816        H820   1.083       .  S
N817        O827   1.262       .  A
N817        O828   1.262       .  A
N819        O825   1.262       .  A
N819        O826   1.262       .  A
C829        C830   1.401       .  A
C829        C834   1.405       .  A
C829        H839   1.083       .  S
C830        C835   1.480       .  S
C830        C831   1.408       .  A
C831        C832   1.396       .  A
C831        N836   1.432       .  S
C832        C833   1.409       .  A
C832        H837   1.082       .  S
C833        C834   1.418       .  A
C834        N838   1.429       .  S
C835        C840   1.406       .  A
C835        C844   1.406       .  A
N836        O851   1.262       .  A
N836        O852   1.262       .  A
N838        O849   1.262       .  A
N838        O850   1.262       .  A
C840        C841   1.394       .  A
C840        N845   1.430       .  S
C841        C842   1.405       .  A
C841        H846   1.084       .  S
C842        C843   1.409       .  A
C843        C844   1.407       .  A
C843        N847   1.428       .  S
C844        H848   1.083       .  S
N845        O855   1.262       .  A
N845        O856   1.262       .  A
N847        O853   1.262       .  A
N847        O854   1.262       .  A
C857        C858   1.404       .  A
C857        C862   1.402       .  A
C857        H867   1.081       .  S
C858        C863   1.496   1_655  S
C858        C859   1.414       .  A
C859        C860   1.405       .  A
C859        N864   1.430       .  S
C860        C861   1.405       .  A
C860        H865   1.082       .  S
C861        C862   1.416       .  A
C862        N866   1.429       .  S
C863        C868   1.414       .  A
C863        C872   1.403       .  A
N864        O879   1.262       .  A
N864        O880   1.262       .  A
N866        O877   1.262       .  A
N866        O878   1.262       .  A
C868        C869   1.406       .  A
C868        N873   1.429       .  S
C869        C870   1.407       .  A
C869        H874   1.082       .  S
C870        C871   1.418       .  A
C871        C872   1.400       .  A
C871        N875   1.430       .  S
C872        H876   1.082       .  S
N873        O883   1.262       .  A
N873        O884   1.262       .  A
N875        O881   1.262       .  A
N875        O882   1.262       .  A
C885        C886   1.397       .  A
C885        C890   1.399       .  A
C885        H895   1.084   1_556  S
C886        C891   1.474   1_556  S
C886        C887   1.405       .  A
C887        C888   1.402       .  A
C887        N892   1.430       .  S
C888        C889   1.410       .  A
C888        H893   1.083       .  S
C889        C890   1.418       .  A
C890        N894   1.430       .  S
C891        C896   1.409       .  A
C891        C900   1.396       .  A
N892        O907   1.262       .  A
N892        O908   1.262       .  A
N894        O905   1.262       .  A
N894        O906   1.262       .  A
C896        C897   1.403       .  A
C896        N901   1.427   1_554  S
C897        C898   1.401       .  A
C897        H902   1.085       .  S
C898        C899   1.413       .  A
C899        C900   1.395       .  A
C899        N903   1.428       .  S
C900        H904   1.085       .  S
N901        O911   1.261       .  A
N901        O912   1.262       .  A
N903        O909   1.261       .  A
N903        O910   1.262       .  A
C913        C914   1.399       .  A
C913        C918   1.398       .  A
C913        H923   1.084       .  S
C914        C919   1.480       .  S
C914        C915   1.407       .  A
C915        C916   1.403       .  A
C915        N920   1.428       .  S
C916        C917   1.406       .  A
C916        H921   1.084       .  S
C917        C918   1.412       .  A
C918        N922   1.425       .  S
C919        C924   1.403       .  A
C919        C928   1.404       .  A
N920        O935   1.262       .  A
N920        O936   1.262       .  A
N922        O933   1.262       .  A
N922        O934   1.262       .  A
C924        C925   1.394       .  A
C924        N929   1.430       .  S
C925        C926   1.412       .  A
C925        H930   1.083       .  S
C926        C927   1.415       .  A
C927        C928   1.408       .  A
C927        N931   1.428       .  S
C928        H932   1.084       .  S
N929        O939   1.262       .  A
N929        O940   1.262       .  A
N931        O937   1.262       .  A
N931        O938   1.262       .  A
C941        C942   1.404       .  A
C941        C946   1.402       .  A
C941        H951   1.083       .  S
C942        C947   1.501       .  S
C942        C943   1.415       .  A
C943        C944   1.411       .  A
C943        N948   1.429       .  S
C944        C945   1.407       .  A
C944        H949   1.082       .  S
C945        C946   1.418       .  A
C946        N950   1.430       .  S
C947        C952   1.417       .  A
C947        C956   1.401       .  A
N948        O963   1.262       .  A
N948        O964   1.262   1_565  A
N950        O961   1.262       .  A
N950        O962   1.262       .  A
C952        C953   1.414       .  A
C952        N957   1.430       .  S
C953        C954   1.407       .  A
C953        H958   1.082       .  S
C954        C955   1.420       .  A
C955        C956   1.401       .  A
C955        N959   1.431       .  S
C956        H960   1.083       .  S
N957        O967   1.262       .  A
N957        O968   1.262   1_565  A
N959        O965   1.262       .  A
N959        O966   1.262       .  A
C969        C970   1.408       .  A
C969        C974   1.407       .  A
C969        H979   1.080       .  S
C970        C975   1.481       .  S
C970        C971   1.405       .  A
C971        C972   1.391       .  A
C971        N976   1.431       .  S
C972        C973   1.407       .  A
C972        H977   1.078       .  S
C973        C974   1.411       .  A
C974        N978   1.428       .  S
C975        C980   1.407       .  A
C975        C984   1.400       .  A
N976        O991   1.262       .  A
N976        O992   1.261       .  A
N978        O989   1.262       .  A
N978        O990   1.262       .  A
C980        C981   1.403       .  A
C980        N985   1.429       .  S
C981        C982   1.410       .  A
C981        H986   1.082       .  S
C982        C983   1.417       .  A
C983        C984   1.394       .  A
C983        N987   1.429       .  S
C984        H988   1.082       .  S
N985        O995   1.262       .  A
N985        O996   1.262       .  A
N987        O993   1.262       .  A
N987        O994   1.262       .  A
C997        C998   1.401       .  A
C997       C1002   1.400       .  A
C997       H1007   1.083       .  S
C998       C1003   1.487       .  S
C998        C999   1.411       .  A
C999       C1000   1.408       .  A
C999       N1004   1.428       .  S
C1000      C1001   1.407       .  A
C1000      H1005   1.083       .  S
C1001      C1002   1.410       .  A
C1002      N1006   1.427       .  S
C1003      C1008   1.413       .  A
C1003      C1012   1.398       .  A
N1004      O1019   1.262       .  A
N1004      O1020   1.261       .  A
N1006      O1017   1.260       .  A
N1006      O1018   1.262       .  A
C1008      C1009   1.410       .  A
C1008      N1013   1.429       .  S
C1009      C1010   1.404       .  A
C1009      H1014   1.083       .  S
C1010      C1011   1.420       .  A
C1011      C1012   1.398       .  A
C1011      N1015   1.430       .  S
C1012      H1016   1.084       .  S
N1013      O1023   1.262       .  A
N1013      O1024   1.262       .  A
N1015      O1021   1.262       .  A
N1015      O1022   1.261       .  A
C1025      C1026   1.409       .  A
C1025      C1030   1.409       .  A
C1025      H1035   1.080       .  S
C1026      C1031   1.503       .  S
C1026      C1027   1.413       .  A
C1027      C1028   1.401       .  A
C1027      N1032   1.430       .  S
C1028      C1029   1.408       .  A
C1028      H1033   1.081       .  S
C1029      C1030   1.417       .  A
C1030      N1034   1.429       .  S
C1031      C1036   1.415       .  A
C1031      C1040   1.409       .  A
N1032      O1047   1.262       .  A
N1032      O1048   1.262       .  A
N1034      O1045   1.262       .  A
N1034      O1046   1.262       .  A
C1036      C1037   1.402       .  A
C1036      N1041   1.429       .  S
C1037      C1038   1.404       .  A
C1037      H1042   1.083       .  S
C1038      C1039   1.411       .  A
C1039      C1040   1.407       .  A
C1039      N1043   1.429       .  S
C1040      H1044   1.081       .  S
N1041      O1051   1.262       .  A
N1041      O1052   1.262       .  A
N1043      O1049   1.262       .  A
N1043      O1050   1.262       .  A
C1053      C1054   1.409       .  A
C1053      C1058   1.414       .  A
C1053      H1063   1.081       .  S
C1054      C1059   1.491       .  S
C1054      C1055   1.404       .  A
C1055      C1056   1.399       .  A
C1055      N1060   1.430       .  S
C1056      C1057   1.413       .  A
C1056      H1061   1.081       .  S
C1057      C1058   1.413       .  A
C1058      N1062   1.428       .  S
C1059      C1064   1.410       .  A
C1059      C1068   1.400       .  A
N1060      O1075   1.262       .  A
N1060      O1076   1.262       .  A
N1062      O1073   1.262       .  A
N1062      O1074   1.262       .  A
C1064      C1065   1.409       .  A
C1064      N1069   1.428       .  S
C1065      C1066   1.408       .  A
C1065      H1070   1.084       .  S
C1066      C1067   1.420       .  A
C1067      C1068   1.404       .  A
C1067      N1071   1.430       .  S
C1068      H1072   1.084       .  S
N1069      O1079   1.262   1_565  A
N1069      O1080   1.261       .  A
N1071      O1077   1.262       .  A
N1071      O1078   1.262       .  A
C1081      C1082   1.405       .  A
C1081      C1086   1.403       .  A
C1081      H1091   1.083       .  S
C1082      C1087   1.487   1_455  S
C1082      C1083   1.409       .  A
C1083      C1084   1.400       .  A
C1083      N1088   1.429       .  S
C1084      C1085   1.406       .  A
C1084      H1089   1.084       .  S
C1085      C1086   1.411       .  A
C1086      N1090   1.429       .  S
C1087      C1092   1.408       .  A
C1087      C1096   1.404       .  A
N1088      O1103   1.262       .  A
N1088      O1104   1.262       .  A
N1090      O1101   1.262       .  A
N1090      O1102   1.262       .  A
C1092      C1093   1.397       .  A
C1092      N1097   1.430       .  S
C1093      C1094   1.408       .  A
C1093      H1098   1.082       .  S
C1094      C1095   1.416       .  A
C1095      C1096   1.407       .  A
C1095      N1099   1.429       .  S
C1096      H1100   1.082       .  S
N1097      O1107   1.262       .  A
N1097      O1108   1.262   1_655  A
N1099      O1105   1.262       .  A
N1099      O1106   1.262       .  A
C1109      C1110   1.403       .  A
C1109      C1114   1.396       .  A
C1109      H1119   1.082       .  S
C1110      C1115   1.484       .  S
C1110      C1111   1.414       .  A
C1111      C1112   1.401       .  A
C1111      N1116   1.430       .  S
C1112      C1113   1.401       .  A
C1112      H1117   1.083       .  S
C1113      C1114   1.408       .  A
C1114      N1118   1.429       .  S
C1115      C1120   1.409       .  A
C1115      C1124   1.404       .  A
N1116      O1131   1.262       .  A
N1116      O1132   1.262       .  A
N1118      O1129   1.262       .  A
N1118      O1130   1.262       .  A
C1120      C1121   1.397       .  A
C1120      N1125   1.430       .  S
C1121      C1122   1.407       .  A
C1121      H1126   1.083       .  S
C1122      C1123   1.413       .  A
C1123      C1124   1.401       .  A
C1123      N1127   1.428       .  S
C1124      H1128   1.082       .  S
N1125      O1135   1.262       .  A
N1125      O1136   1.262       .  A
N1127      O1133   1.262       .  A
N1127      O1134   1.262       .  A
C1137      C1138   1.404       .  A
C1137      C1142   1.400       .  A
C1137      H1147   1.083       .  S
C1138      C1143   1.499       .  S
C1138      C1139   1.414       .  A
C1139      C1140   1.410       .  A
C1139      N1144   1.428       .  S
C1140      C1141   1.407       .  A
C1140      H1145   1.083       .  S
C1141      C1142   1.414       .  A
C1142      N1146   1.430       .  S
C1143      C1148   1.409       .  A
C1143      C1152   1.410       .  A
N1144      O1159   1.262   1_545  A
N1144      O1160   1.262       .  A
N1146      O1157   1.262       .  A
N1146      O1158   1.262       .  A
C1148      C1149   1.396       .  A
C1148      N1153   1.430       .  S
C1149      C1150   1.410       .  A
C1149      H1154   1.082       .  S
C1150      C1151   1.417       .  A
C1151      C1152   1.414       .  A
C1151      N1155   1.428       .  S
C1152      H1156   1.081       .  S
N1153      O1163   1.262       .  A
N1153      O1164   1.262       .  A
N1155      O1161   1.262       .  A
N1155      O1162   1.262       .  A
C1165      C1166   1.399   1_545  A
C1165      C1170   1.401       .  A
C1165      H1175   1.081       .  S
C1166      C1171   1.485       .  S
C1166      C1167   1.409       .  A
C1167      C1168   1.407       .  A
C1167      N1172   1.429       .  S
C1168      C1169   1.407   1_565  A
C1168      H1173   1.075       .  S
C1169      C1170   1.417       .  A
C1170      N1174   1.429       .  S
C1171      C1176   1.409       .  A
C1171      C1180   1.402       .  A
N1172      O1187   1.262       .  A
N1172      O1188   1.262       .  A
N1174      O1185   1.262       .  A
N1174      O1186   1.262       .  A
C1176      C1177   1.404       .  A
C1176      N1181   1.430   1_565  S
C1177      C1178   1.405       .  A
C1177      H1182   1.069       .  S
C1178      C1179   1.415       .  A
C1179      C1180   1.405       .  A
C1179      N1183   1.429       .  S
C1180      H1184   1.080       .  S
N1181      O1191   1.261       .  A
N1181      O1192   1.262       .  A
N1183      O1189   1.262       .  A
N1183      O1190   1.262       .  A
C1193      C1194   1.403       .  A
C1193      C1198   1.402       .  A
C1193      H1203   1.083       .  S
C1194      C1199   1.483       .  S
C1194      C1195   1.408       .  A
C1195      C1196   1.405       .  A
C1195      N1200   1.429       .  S
C1196      C1197   1.406       .  A
C1196      H1201   1.083   1_565  S
C1197      C1198   1.408       .  A
C1198      N1202   1.427       .  S
C1199      C1204   1.406       .  A
C1199      C1208   1.403       .  A
N1200      O1215   1.262       .  A
N1200      O1216   1.262       .  A
N1202      O1213   1.261       .  A
N1202      O1214   1.262       .  A
C1204      C1205   1.403       .  A
C1204      N1209   1.428       .  S
C1205      C1206   1.407       .  A
C1205      H1210   1.083       .  S
C1206      C1207   1.415       .  A
C1207      C1208   1.405       .  A
C1207      N1211   1.430       .  S
C1208      H1212   1.083       .  S
N1209      O1219   1.262       .  A
N1209      O1220   1.262       .  A
N1211      O1217   1.262       .  A
N1211      O1218   1.262       .  A
C1221      C1222   1.404       .  A
C1221      C1226   1.401       .  A
C1221      H1231   1.084       .  S
C1222      C1227   1.487       .  S
C1222      C1223   1.409       .  A
C1223      C1224   1.403       .  A
C1223      N1228   1.428       .  S
C1224      C1225   1.404       .  A
C1224      H1229   1.083       .  S
C1225      C1226   1.414       .  A
C1226      N1230   1.431       .  S
C1227      C1232   1.409       .  A
C1227      C1236   1.403       .  A
N1228      O1243   1.261       .  A
N1228      O1244   1.262       .  A
N1230      O1241   1.262       .  A
N1230      O1242   1.262       .  A
C1232      C1233   1.399       .  A
C1232      N1237   1.430       .  S
C1233      C1234   1.406       .  A
C1233      H1238   1.083       .  S
C1234      C1235   1.415       .  A
C1235      C1236   1.405       .  A
C1235      N1239   1.429       .  S
C1236      H1240   1.083       .  S
N1237      O1247   1.262       .  A
N1237      O1248   1.262       .  A
N1239      O1245   1.262       .  A
N1239      O1246   1.262       .  A
C1249      C1250   1.398       .  A
C1249      C1254   1.399       .  A
C1249      H1259   1.083       .  S
C1250      C1255   1.501       .  S
C1250      C1251   1.419       .  A
C1251      C1252   1.415       .  A
C1251      N1256   1.428       .  S
C1252      C1253   1.405       .  A
C1252      H1257   1.083       .  S
C1253      C1254   1.420       .  A
C1254      N1258   1.430       .  S
C1255      C1260   1.418       .  A
C1255      C1264   1.401       .  A
N1256      O1271   1.262       .  A
N1256      O1272   1.262       .  A
N1258      O1269   1.261       .  A
N1258      O1270   1.262       .  A
C1260      C1261   1.411       .  A
C1260      N1265   1.429       .  S
C1261      C1262   1.405       .  A
C1261      H1266   1.080       .  S
C1262      C1263   1.420       .  A
C1263      C1264   1.403       .  A
C1263      N1267   1.430       .  S
C1264      H1268   1.080       .  S
N1265      O1275   1.262       .  A
N1265      O1276   1.262       .  A
N1267      O1273   1.262       .  A
N1267      O1274   1.262       .  A
C1277      C1278   1.399       .  A
C1277      C1282   1.400       .  A
C1277      H1287   1.084       .  S
C1278      C1283   1.485       .  S
C1278      C1279   1.410       .  A
C1279      C1280   1.407   1_545  A
C1279      N1284   1.429       .  S
C1280      C1281   1.407       .  A
C1280      H1285   1.084       .  S
C1281      C1282   1.414   1_565  A
C1282      N1286   1.428       .  S
C1283      C1288   1.407       .  A
C1283      C1292   1.402       .  A
N1284      O1299   1.262       .  A
N1284      O1300   1.262       .  A
N1286      O1297   1.262       .  A
N1286      O1298   1.262       .  A
C1288      C1289   1.405       .  A
C1288      N1293   1.429       .  S
C1289      C1290   1.409       .  A
C1289      H1294   1.084       .  S
C1290      C1291   1.414       .  A
C1291      C1292   1.404       .  A
C1291      N1295   1.429       .  S
C1292      H1296   1.084       .  S
N1293      O1303   1.261       .  A
N1293      O1304   1.262       .  A
N1295      O1301   1.262       .  A
N1295      O1302   1.262       .  A
C1305      C1306   1.404       .  A
C1305      C1310   1.406       .  A
C1305      H1315   1.082       .  S
C1306      C1311   1.492       .  S
C1306      C1307   1.412       .  A
C1307      C1308   1.399       .  A
C1307      N1312   1.430       .  S
C1308      C1309   1.406       .  A
C1308      H1313   1.083       .  S
C1309      C1310   1.418       .  A
C1310      N1314   1.429       .  S
C1311      C1316   1.410       .  A
C1311      C1320   1.402       .  A
N1312      O1327   1.262       .  A
N1312      O1328   1.261       .  A
N1314      O1325   1.262       .  A
N1314      O1326   1.262       .  A
C1316      C1317   1.407       .  A
C1316      N1321   1.429       .  S
C1317      C1318   1.409       .  A
C1317      H1322   1.075       .  S
C1318      C1319   1.415       .  A
C1319      C1320   1.399       .  A
C1319      N1323   1.428       .  S
C1320      H1324   1.081       .  S
N1321      O1331   1.262       .  A
N1321      O1332   1.262       .  A
N1323      O1329   1.262       .  A
N1323      O1330   1.262       .  A
C1333      C1334   1.406       .  A
C1333      C1338   1.410       .  A
C1333      H1343   1.084       .  S
C1334      C1339   1.494       .  S
C1334      C1335   1.405       .  A
C1335      C1336   1.404       .  A
C1335      N1340   1.429       .  S
C1336      C1337   1.415       .  A
C1336      H1341   1.083       .  S
C1337      C1338   1.416       .  A
C1338      N1342   1.427       .  S
C1339      C1344   1.408       .  A
C1339      C1348   1.411       .  A
N1340      O1355   1.262       .  A
N1340      O1356   1.262       .  A
N1342      O1353   1.261       .  A
N1342      O1354   1.262       .  A
C1344      C1345   1.397       .  A
C1344      N1349   1.429       .  S
C1345      C1346   1.403       .  A
C1345      H1350   1.085       .  S
C1346      C1347   1.409       .  A
C1347      C1348   1.413       .  A
C1347      N1351   1.429       .  S
C1348      H1352   1.084       .  S
N1349      O1359   1.262       .  A
N1349      O1360   1.262       .  A
N1351      O1357   1.262       .  A
N1351      O1358   1.262       .  A
C1361      C1362   1.403       .  A
C1361      C1366   1.400       .  A
C1361      H1371   1.083       .  S
C1362      C1367   1.469       .  S
C1362      C1363   1.400       .  A
C1363      C1364   1.394       .  A
C1363      N1368   1.429       .  S
C1364      C1365   1.411       .  A
C1364      H1369   1.083       .  S
C1365      C1366   1.410       .  A
C1366      N1370   1.428       .  S
C1367      C1372   1.401       .  A
C1367      C1376   1.407       .  A
N1368      O1383   1.262       .  A
N1368      O1384   1.262       .  A
N1370      O1381   1.262       .  A
N1370      O1382   1.262       .  A
C1372      C1373   1.388       .  A
C1372      N1377   1.428       .  S
C1373      C1374   1.402       .  A
C1373      H1378   1.085       .  S
C1374      C1375   1.407       .  A
C1375      C1376   1.404       .  A
C1375      N1379   1.430       .  S
C1376      H1380   1.084       .  S
N1377      O1387   1.261       .  A
N1377      O1388   1.262       .  A
N1379      O1385   1.262       .  A
N1379      O1386   1.262       .  A
C1389      C1390   1.400       .  A
C1389      C1394   1.399       .  A
C1389      H1399   1.084       .  S
C1390      C1395   1.490       .  S
C1390      C1391   1.413       .  A
C1391      C1392   1.411       .  A
C1391      N1396   1.428       .  S
C1392      C1393   1.407       .  A
C1392      H1397   1.083       .  S
C1393      C1394   1.416       .  A
C1394      N1398   1.430       .  S
C1395      C1400   1.412       .  A
C1395      C1404   1.396       .  A
N1396      O1411   1.262       .  A
N1396      O1412   1.262   1_545  A
N1398      O1409   1.262       .  A
N1398      O1410   1.262       .  A
C1400      C1401   1.411       .  A
C1400      N1405   1.428       .  S
C1401      C1402   1.410       .  A
C1401      H1406   1.081       .  S
C1402      C1403   1.422       .  A
C1403      C1404   1.397       .  A
C1403      N1407   1.427       .  S
C1404      H1408   1.083       .  S
N1405      O1415   1.262       .  A
N1405      O1416   1.262       .  A
N1407      O1413   1.261       .  A
N1407      O1414   1.262       .  A
C1417      C1418   1.399       .  A
C1417      C1422   1.398       .  A
C1417      H1427   1.084       .  S
C1418      C1423   1.481       .  S
C1418      C1419   1.408       .  A
C1419      C1420   1.406       .  A
C1419      N1424   1.429       .  S
C1420      C1421   1.410       .  A
C1420      H1425   1.084       .  S
C1421      C1422   1.416       .  A
C1422      N1426   1.429       .  S
C1423      C1428   1.404       .  A
C1423      C1432   1.407       .  A
N1424      O1439   1.262       .  A
N1424      O1440   1.262       .  A
N1426      O1437   1.262       .  A
N1426      O1438   1.262       .  A
C1428      C1429   1.397       .  A
C1428      N1433   1.429       .  S
C1429      C1430   1.406       .  A
C1429      H1434   1.084       .  S
C1430      C1431   1.410       .  A
C1431      C1432   1.408       .  A
C1431      N1435   1.429       .  S
C1432      H1436   1.084       .  S
N1433      O1443   1.262       .  A
N1433      O1444   1.262       .  A
N1435      O1441   1.262       .  A
N1435      O1442   1.262       .  A
C1445      C1446   1.403       .  A
C1445      C1450   1.403       .  A
C1445      H1455   1.083       .  S
C1446      C1451   1.492       .  S
C1446      C1447   1.416       .  A
C1447      C1448   1.400       .  A
C1447      N1452   1.430       .  S
C1448      C1449   1.400       .  A
C1448      H1453   1.085       .  S
C1449      C1450   1.415       .  A
C1450      N1454   1.430       .  S
C1451      C1456   1.413       .  A
C1451      C1460   1.398       .  A
N1452      O1467   1.262       .  A
N1452      O1468   1.262       .  A
N1454      O1465   1.262       .  A
N1454      O1466   1.262       .  A
C1456      C1457   1.409       .  A
C1456      N1461   1.428       .  S
C1457      C1458   1.408       .  A
C1457      H1462   1.083   1_565  S
C1458      C1459   1.424       .  A
C1459      C1460   1.395       .  A
C1459      N1463   1.434       .  S
C1460      H1464   1.083       .  S
N1461      O1471   1.262       .  A
N1461      O1472   1.262       .  A
N1463      O1469   1.263       .  A
N1463      O1470   1.262       .  A
C1473      C1474   1.400       .  A
C1473      C1478   1.401       .  A
C1473      H1483   1.083       .  S
C1474      C1479   1.493       .  S
C1474      C1475   1.414   1_565  A
C1475      C1476   1.410   1_545  A
C1475      N1480   1.429       .  S
C1476      C1477   1.408       .  A
C1476      H1481   1.082       .  S
C1477      C1478   1.419       .  A
C1478      N1482   1.429       .  S
C1479      C1484   1.410   1_565  A
C1479      C1488   1.404       .  A
N1480      O1495   1.262       .  A
N1480      O1496   1.262       .  A
N1482      O1493   1.262       .  A
N1482      O1494   1.262       .  A
C1484      C1485   1.407       .  A
C1484      N1489   1.429       .  S
C1485      C1486   1.409       .  A
C1485      H1490   1.083       .  S
C1486      C1487   1.415   1_545  A
C1487      C1488   1.404       .  A
C1487      N1491   1.431       .  S
C1488      H1492   1.083       .  S
N1489      O1499   1.262       .  A
N1489      O1500   1.262       .  A
N1491      O1497   1.262       .  A
N1491      O1498   1.262   1_565  A
C1501      C1502   1.407       .  A
C1501      C1506   1.408       .  A
C1501      H1511   1.083       .  S
C1502      C1507   1.494   1_655  S
C1502      C1503   1.411       .  A
C1503      C1504   1.404       .  A
C1503      N1508   1.431       .  S
C1504      C1505   1.410       .  A
C1504      H1509   1.083       .  S
C1505      C1506   1.413       .  A
C1506      N1510   1.428       .  S
C1507      C1512   1.415       .  A
C1507      C1516   1.399       .  A
N1508      O1523   1.262       .  A
N1508      O1524   1.262       .  A
N1510      O1521   1.262       .  A
N1510      O1522   1.262       .  A
C1512      C1513   1.412       .  A
C1512      N1517   1.430       .  S
C1513      C1514   1.409       .  A
C1513      H1518   1.082       .  S
C1514      C1515   1.419       .  A
C1515      C1516   1.397       .  A
C1515      N1519   1.428       .  S
C1516      H1520   1.084       .  S
N1517      O1527   1.262       .  A
N1517      O1528   1.262       .  A
N1519      O1525   1.262       .  A
N1519      O1526   1.261       .  A
C1529      C1530   1.408       .  A
C1529      C1534   1.412       .  A
C1529      H1539   1.082       .  S
C1530      C1535   1.487       .  S
C1530      C1531   1.404       .  A
C1531      C1532   1.397       .  A
C1531      N1536   1.429       .  S
C1532      C1533   1.408       .  A
C1532      H1537   1.083       .  S
C1533      C1534   1.413       .  A
C1534      N1538   1.428       .  S
C1535      C1540   1.410       .  A
C1535      C1544   1.401       .  A
N1536      O1551   1.262       .  A
N1536      O1552   1.262       .  A
N1538      O1549   1.262       .  A
N1538      O1550   1.262       .  A
C1540      C1541   1.406       .  A
C1540      N1545   1.428       .  S
C1541      C1542   1.406       .  A
C1541      H1546   1.085       .  S
C1542      C1543   1.416       .  A
C1543      C1544   1.404       .  A
C1543      N1547   1.429       .  S
C1544      H1548   1.085       .  S
N1545      O1555   1.262       .  A
N1545      O1556   1.261       .  A
N1547      O1553   1.262       .  A
N1547      O1554   1.262       .  A
C1557      C1558   1.402       .  A
C1557      C1562   1.406       .  A
C1557      H1567   1.083       .  S
C1558      C1563   1.482       .  S
C1558      C1559   1.408       .  A
C1559      C1560   1.400       .  A
C1559      N1564   1.429       .  S
C1560      C1561   1.405       .  A
C1560      H1565   1.084       .  S
C1561      C1562   1.417       .  A
C1562      N1566   1.433       .  S
C1563      C1568   1.408       .  A
C1563      C1572   1.398       .  A
N1564      O1579   1.261       .  A
N1564      O1580   1.262       .  A
N1566      O1577   1.263       .  A
N1566      O1578   1.262       .  A
C1568      C1569   1.407       .  A
C1568      N1573   1.429       .  S
C1569      C1570   1.409       .  A
C1569      H1574   1.083       .  S
C1570      C1571   1.419       .  A
C1571      C1572   1.400       .  A
C1571      N1575   1.429       .  S
C1572      H1576   1.084       .  S
N1573      O1583   1.262       .  A
N1573      O1584   1.262       .  A
N1575      O1581   1.262       .  A
N1575      O1582   1.262       .  A
C1585      C1586   1.403       .  A
C1585      C1590   1.404       .  A
C1585      H1595   1.083       .  S
C1586      C1591   1.482       .  S
C1586      C1587   1.410       .  A
C1587      C1588   1.396       .  A
C1587      N1592   1.433       .  S
C1588      C1589   1.408       .  A
C1588      H1593   1.084       .  S
C1589      C1590   1.414       .  A
C1590      N1594   1.428       .  S
C1591      C1596   1.411       .  A
C1591      C1600   1.401       .  A
N1592      O1607   1.261       .  A
N1592      O1608   1.263       .  A
N1594      O1605   1.262       .  A
N1594      O1606   1.262       .  A
C1596      C1597   1.399       .  A
C1596      N1601   1.431       .  S
C1597      C1598   1.405       .  A
C1597      H1602   1.082       .  S
C1598      C1599   1.414       .  A
C1599      C1600   1.401       .  A
C1599      N1603   1.429       .  S
C1600      H1604   1.082       .  S
N1601      O1611   1.262       .  A
N1601      O1612   1.262       .  A
N1603      O1609   1.262       .  A
N1603      O1610   1.262       .  A
C1613      C1614   1.402       .  A
C1613      C1618   1.403       .  A
C1613      H1623   1.081       .  S
C1614      C1619   1.481       .  S
C1614      C1615   1.408       .  A
C1615      C1616   1.396       .  A
C1615      N1620   1.430       .  S
C1616      C1617   1.406       .  A
C1616      H1621   1.082       .  S
C1617      C1618   1.416       .  A
C1618      N1622   1.429       .  S
C1619      C1624   1.407       .  A
C1619      C1628   1.403       .  A
N1620      O1635   1.262       .  A
N1620      O1636   1.262       .  A
N1622      O1633   1.262       .  A
N1622      O1634   1.262       .  A
C1624      C1625   1.401   1_545  A
C1624      N1629   1.428       .  S
C1625      C1626   1.406       .  A
C1625      H1630   1.081       .  S
C1626      C1627   1.412   1_565  A
C1627      C1628   1.399       .  A
C1627      N1631   1.432       .  S
C1628      H1632   1.081       .  S
N1629      O1639   1.262       .  A
N1629      O1640   1.262       .  A
N1631      O1637   1.262       .  A
N1631      O1638   1.262       .  A
C1641      C1642   1.407       .  A
C1641      C1646   1.402       .  A
C1641      H1651   1.078       .  S
C1642      C1647   1.501       .  S
C1642      C1643   1.418       .  A
C1643      C1644   1.408       .  A
C1643      N1648   1.429       .  S
C1644      C1645   1.401       .  A
C1644      H1649   1.080       .  S
C1645      C1646   1.409       .  A
C1646      N1650   1.430       .  S
C1647      C1652   1.415       .  A
C1647      C1656   1.405       .  A
N1648      O1663   1.262       .  A
N1648      O1664   1.262       .  A
N1650      O1661   1.262       .  A
N1650      O1662   1.262       .  A
C1652      C1653   1.407       .  A
C1652      N1657   1.430       .  S
C1653      C1654   1.407       .  A
C1653      H1658   1.081       .  S
C1654      C1655   1.418       .  A
C1655      C1656   1.404       .  A
C1655      N1659   1.430       .  S
C1656      H1660   1.079       .  S
N1657      O1667   1.262       .  A
N1657      O1668   1.262       .  A
N1659      O1665   1.262       .  A
N1659      O1666   1.262       .  A
C1669      C1670   1.400       .  A
C1669      C1674   1.401       .  A
C1669      H1679   1.083       .  S
C1670      C1675   1.478       .  S
C1670      C1671   1.408       .  A
C1671      C1672   1.400       .  A
C1671      N1676   1.429       .  S
C1672      C1673   1.405       .  A
C1672      H1677   1.083       .  S
C1673      C1674   1.413       .  A
C1674      N1678   1.429       .  S
C1675      C1680   1.406       .  A
C1675      C1684   1.405       .  A
N1676      O1691   1.262       .  A
N1676      O1692   1.262       .  A
N1678      O1689   1.262       .  A
N1678      O1690   1.262       .  A
C1680      C1681   1.397       .  A
C1680      N1685   1.430       .  S
C1681      C1682   1.406       .  A
C1681      H1686   1.084       .  S
C1682      C1683   1.407       .  A
C1683      C1684   1.405       .  A
C1683      N1687   1.429       .  S
C1684      H1688   1.083       .  S
N1685      O1695   1.262       .  A
N1685      O1696   1.262       .  A
N1687      O1693   1.262       .  A
N1687      O1694   1.262       .  A
