geometry optimzed in LAMMPS
_audit_creation_date              2020-12-01 
_audit_creation_method            'lammps2cif' 
_symmetry_space_group_name_H-M    'P1' 
_symmetry_Int_Tables_number       1 
_symmetry_cell_setting            triclinic 
loop_ 
_symmetry_equiv_pos_as_xyz 
  x,y,z 
_cell_length_a                    43.53088975 
_cell_length_b                    82.78775433441909 
_cell_length_c                    42.49242579622949 
_cell_angle_alpha                 91.7867662034431 
_cell_angle_beta                  89.78339256807455 
_cell_angle_gamma                 89.88135900687628 
loop_ 
_atom_site_label 
_atom_site_type_symbol 
_atom_site_fract_x 
_atom_site_fract_y 
_atom_site_fract_z 
_atom_site_charge 
Zr1        Zr  0.16103518  0.85862234  0.42213430     2.17500
O2          O  0.11872304  0.85921444  0.38464595    -0.51800
O3          O  0.15368807  0.82927326  0.42245164    -0.75000
O4          O  0.17801010  0.85600031  0.36661821    -0.81700
O5          O  0.10784788  0.87071758  0.49189749    -0.83500
O6          O  0.22925690  0.86119500  0.36464877    -0.79100
O7          O  0.10787310  0.86357736  0.43975520    -0.90800
O8          O  0.18977120  0.81875713  0.45430184    -0.76700
O9          O  0.21306003  0.84957550  0.42456699    -0.86200
O10         O  0.16831665  0.84990481  0.47480086    -0.85900
O11         O  0.19277695  0.88135209  0.40929671    -0.72700
O12         O  0.15249368  0.88169658  0.45668818    -0.84800
Zr13       Zr  0.24303328  0.88760967  0.49878679     2.26400
Zr14       Zr  0.24511435  0.87245171  0.41458183     2.06300
Zr15       Zr  0.16094617  0.87305613  0.50934202     2.10000
Zr16       Zr  0.22020673  0.84092656  0.47663300     1.78800
O17         O  0.13277004  0.89401542  0.53882254    -0.93600
O18         O  0.25740335  0.82459258  0.44659051    -0.41400
O19         O  0.21295573  0.86420753  0.51092946    -0.78000
O20         O  0.25327078  0.86349902  0.46680595    -0.96700
O21         O  0.23605712  0.89625535  0.44659277    -0.90000
O22         O  0.19088598  0.89624756  0.49674695    -0.92900
C23         C  0.16673803  0.81727390  0.43562846     1.00900
C24         C  0.09396958  0.86751729  0.46576109     1.13800
C25         C  0.20386118  0.85697546  0.35184505     1.04600
O26         O  0.28390261  0.85462749  0.39085349    -0.95000
O27         O  0.29777623  0.87889917  0.42929632    -0.90800
O28         O  0.29620208  0.88699033  0.48063639    -0.83900
C29         C  0.31084308  0.88360291  0.45501821     1.11200
O30         O  0.14286306  0.91060645  0.40676142    -0.97000
Zr31       Zr  0.18358392  0.90426806  0.44370270     1.88900
O32         O  0.24056503  0.91725261  0.50515361    -0.73600
O33         O  0.25792090  0.89364347  0.37831008    -0.52900
O34         O  0.20574624  0.91818815  0.39934491    -0.97600
O35         O  0.14343392  0.92192124  0.46564634    -0.54800
O36         O  0.20901051  0.92715232  0.46815947    -0.74200
C37         C  0.22776177  0.92903122  0.49106160     0.98200
O38         O  0.28025312  0.89524966  0.53946153    -0.63000
O39         O  0.13949979  0.85179849  0.54139117    -0.57800
O40         O  0.23521707  0.88171237  0.55334843    -0.94500
O41         O  0.18525048  0.87538058  0.56147910    -0.92900
O42         O  0.20340802  0.82563142  0.52156293    -0.93200
O43         O  0.26109441  0.83149530  0.51047916    -0.92000
C44         C  0.21276142  0.87816802  0.57135221     1.17000
H45         H  0.15399625  0.84154128  0.48024891     0.33000
H46         H  0.27399564  0.85964031  0.46952025     0.43800
H47         H  0.18664678  0.90497269  0.51176337     0.37300
H48         H  0.18889999  0.88458646  0.38803442     0.33800
H49         H  0.25623203  0.81374297  0.45568897     0.25600
H50         H  0.27371296  0.88869863  0.36418778     0.31600
H51         H  0.20374365  0.92983753  0.40497290     0.37500
H52         H  0.20059870  0.83383515  0.53879591     0.31900
H53         H  0.13563141  0.85701259  0.56232156     0.30800
H54         H  0.12652729  0.88887737  0.55857824     0.32500
H55         H  0.12668171  0.91449468  0.47144390     0.31500
H56         H  0.26840846  0.84137348  0.52182772     0.35400
H57         H  0.29540956  0.88632419  0.54004749     0.28200
H58         H  0.12024243  0.84899485  0.37198839     0.32400
H59         H  0.14507452  0.92226324  0.40271124     0.35300
H60         H  0.11875899  0.84955350  0.53288626     0.27900
H61         H  0.29176484  0.90456773  0.53137858     0.40700
H62         H  0.28922765  0.84705466  0.40757394     0.30800
H63         H  0.24832235  0.82311059  0.42536830     0.38400
H64         H  0.15149047  0.92607854  0.48608575     0.30300
H65         H  0.23957667  0.89465571  0.36481178     0.30300
H66         H  0.12380629  0.86785040  0.36988491     0.30600
Zr67       Zr  0.66115346  0.85931651  0.40662671     2.17500
O68         O  0.61927705  0.86175950  0.36897471    -0.51800
O69         O  0.65736637  0.82991799  0.39795428    -0.75000
O70         O  0.67853238  0.86100640  0.35143156    -0.81700
O71         O  0.60670105  0.86453362  0.47829638    -0.83500
O72         O  0.72817878  0.86930935  0.35233608    -0.79100
O73         O  0.60784497  0.86057550  0.42504819    -0.90800
O74         O  0.69468674  0.81781696  0.42591733    -0.76700
O75         O  0.71418577  0.85238532  0.40655869    -0.86200
O76         O  0.66951121  0.84631494  0.45538572    -0.85900
O77         O  0.68879408  0.88447934  0.40285124    -0.72700
O78         O  0.64977499  0.87871017  0.44824028    -0.84800
Zr79       Zr  0.74073163  0.88396355  0.49238773     2.26400
Zr80       Zr  0.74208413  0.87736167  0.40490593     2.06300
Zr81       Zr  0.65958568  0.86594711  0.49693143     2.10000
Zr82       Zr  0.72241731  0.83915650  0.45449959     1.78800
O83         O  0.62918641  0.88354841  0.53198469    -0.93600
O84         O  0.76107191  0.82691386  0.41953987    -0.41400
O85         O  0.71274625  0.85892817  0.49574922    -0.78000
O86         O  0.75220469  0.86346649  0.45227872    -0.96700
O87         O  0.73102461  0.89745317  0.44485149    -0.90000
O88         O  0.68739261  0.89074298  0.49384543    -0.92900
C89         C  0.67160376  0.81726857  0.40719064     1.00900
C90         C  0.59341880  0.86271668  0.45139934     1.13800
C91         C  0.70418500  0.86431506  0.33785556     1.04600
O92         O  0.78297314  0.86756252  0.37000397    -0.95000
O93         O  0.79498635  0.88170055  0.42090481    -0.90800
O94         O  0.79445397  0.88501741  0.47398452    -0.83900
C95         C  0.80870316  0.88370714  0.44741088     1.11200
O96         O  0.63872806  0.91236660  0.40810405    -0.97000
Zr97       Zr  0.67723930  0.90344988  0.44534950     1.88900
O98         O  0.73479721  0.91273692  0.50947965    -0.73600
O99         O  0.74570582  0.90392282  0.38213198    -0.52900
O100        O  0.69369278  0.92618941  0.41441795    -0.97600
O101        O  0.63109340  0.91258464  0.47355278    -0.54800
O102        O  0.69586926  0.92387949  0.48220021    -0.74200
C103        C  0.71674314  0.92463099  0.50334308     0.98200
O104        O  0.77845367  0.88749964  0.53446963    -0.63000
O105        O  0.63885187  0.84164899  0.51987550    -0.57800
O106        O  0.73244358  0.87280681  0.54348587    -0.94500
O107        O  0.68338102  0.86409626  0.54897890    -0.92900
O108        O  0.70900834  0.82051910  0.49558797    -0.93200
O109        O  0.76505059  0.82814308  0.48396014    -0.92000
C110        C  0.71065359  0.86674646  0.55962948     1.17000
H111        H  0.65622047  0.83710380  0.45786313     0.33000
H112        H  0.77311285  0.85966559  0.45327840     0.43800
H113        H  0.68230189  0.89758184  0.51194764     0.37300
H114        H  0.68424796  0.88944509  0.38312176     0.33800
H115        H  0.75775723  0.81512500  0.42085341     0.25600
H116        H  0.76546063  0.90836091  0.38993205     0.31600
H117        H  0.71517565  0.92828176  0.42089989     0.37500
H118        H  0.68816222  0.81661812  0.49011307     0.31900
H119        H  0.65686928  0.83612166  0.52880571     0.30800
H120        H  0.61420575  0.87628196  0.54190150     0.32500
H121        H  0.63822664  0.91631807  0.49463831     0.31500
H122        H  0.76944091  0.83651152  0.50048358     0.35400
H123        H  0.79305325  0.87834673  0.53196213     0.28200
H124        H  0.62243093  0.85301477  0.35283840     0.32400
H125        H  0.63215739  0.92323623  0.41588877     0.35300
H126        H  0.62697084  0.84561639  0.53847825     0.27900
H127        H  0.79048883  0.89723402  0.52947084     0.40700
H128        H  0.78256416  0.85566442  0.37177901     0.30800
H129        H  0.75448706  0.82946514  0.39797608     0.38400
H130        H  0.61931836  0.90263017  0.47751851     0.30300
H131        H  0.74925021  0.90167449  0.35938614     0.30300
H132        H  0.62313838  0.87193044  0.35795677     0.30600
Zr133      Zr  0.22083048  0.11586260  0.56240886     2.17500
O134        O  0.17862258  0.11197430  0.52526123    -0.51800
O135        O  0.22141558  0.08610464  0.55951057    -0.75000
O136        O  0.23725249  0.11477888  0.50740421    -0.81700
O137        O  0.16431971  0.13100485  0.62587662    -0.83500
O138        O  0.28643173  0.12339161  0.50279822    -0.79100
O139        O  0.16665168  0.11953725  0.57670848    -0.90800
O140        O  0.25822736  0.07723716  0.59240795    -0.76700
O141        O  0.27310540  0.10798369  0.56739996    -0.86200
O142        O  0.22654913  0.10759097  0.61537042    -0.85900
O143        O  0.24996541  0.13973059  0.55044767    -0.72700
O144        O  0.20953230  0.13953610  0.59462376    -0.84800
Zr145      Zr  0.29915940  0.14678536  0.64236186     2.26400
Zr146      Zr  0.30251245  0.13154004  0.55612004     2.06300
Zr147      Zr  0.21603635  0.13127427  0.64734424     2.10000
Zr148      Zr  0.27930052  0.10038264  0.62064554     1.78800
O149        O  0.17624914  0.14480318  0.67899414    -0.93600
O150        O  0.32382223  0.08562166  0.59987759    -0.41400
O151        O  0.26846426  0.12349191  0.65437844    -0.78000
O152        O  0.31019401  0.12325953  0.60926669    -0.96700
O153        O  0.29232337  0.15485009  0.58939467    -0.90000
O154        O  0.24665066  0.15466201  0.63735256    -0.92900
C155        C  0.23732697  0.07476327  0.57170530     1.00900
C156        C  0.15168263  0.12583025  0.60023292     1.13800
C157        C  0.26123838  0.11785581  0.49097920     1.04600
O158        O  0.33927196  0.11122223  0.53730867    -0.95000
O159        O  0.35364726  0.13979890  0.57239712    -0.90800
O160        O  0.35315668  0.14694095  0.62460396    -0.83900
C161        C  0.36712274  0.14420999  0.59810944     1.11200
O162        O  0.19693988  0.17234095  0.55414623    -0.97000
Zr163      Zr  0.24017988  0.16279067  0.58484249     1.88900
O164        O  0.30710754  0.17594918  0.63854409    -0.73600
O165        O  0.31926985  0.15239467  0.52071686    -0.52900
O166        O  0.25635107  0.17593642  0.53707176    -0.97600
O167        O  0.20123313  0.17889619  0.61301235    -0.54800
O168        O  0.27096563  0.18529144  0.60521237    -0.74200
C169        C  0.29410297  0.18737646  0.62358566     0.98200
O170        O  0.33472388  0.14326312  0.68586856    -0.63000
O171        O  0.20425927  0.10732095  0.67708103    -0.57800
O172        O  0.27954276  0.15295904  0.69614854    -0.94500
O173        O  0.23045250  0.14366707  0.69706707    -0.92900
O174        O  0.25817165  0.08355111  0.66144578    -0.93200
O175        O  0.31667836  0.09423220  0.66113631    -0.92000
C176        C  0.25351638  0.15070896  0.71006625     1.17000
H177        H  0.21288488  0.09876287  0.61985546     0.33000
H178        H  0.33113459  0.11974923  0.61200692     0.43800
H179        H  0.24169774  0.16355783  0.65173475     0.37300
H180        H  0.24591922  0.14306984  0.52929471     0.33800
H181        H  0.32000872  0.07421538  0.60503316     0.25600
H182        H  0.33406483  0.14687595  0.50623777     0.31600
H183        H  0.27822089  0.17865652  0.54064268     0.37500
H184        H  0.26248580  0.07229814  0.65412116     0.31900
H185        H  0.21478369  0.10912525  0.69749998     0.30800
H186        H  0.16668386  0.13624012  0.69147088     0.32500
H187        H  0.21273192  0.18612819  0.62772157     0.31500
H188        H  0.33384286  0.10184206  0.65790120     0.35400
H189        H  0.34858815  0.13431318  0.67904045     0.28200
H190        H  0.18359398  0.10199002  0.51281366     0.32400
H191        H  0.19992394  0.18414879  0.55254682     0.35300
H192        H  0.18210308  0.10820844  0.68217801     0.27900
H193        H  0.34779655  0.15304362  0.68629132     0.40700
H194        H  0.34808633  0.11567503  0.51790393     0.30800
H195        H  0.32161169  0.08584789  0.57671967     0.38400
H196        H  0.19058890  0.17119983  0.62669277     0.30300
H197        H  0.30118575  0.15460539  0.50745156     0.30300
H198        H  0.18025425  0.12083870  0.51021812     0.30600
Zr199      Zr  0.79992336  0.13950190  0.55515441     2.17500
O200        O  0.83991373  0.13666460  0.51495840    -0.51800
O201        O  0.80901927  0.16823893  0.56430153    -0.75000
O202        O  0.78260321  0.14762839  0.50293926    -0.81700
O203        O  0.85344260  0.12081456  0.61508780    -0.83500
O204        O  0.73079742  0.14436784  0.50055652    -0.79100
O205        O  0.85342031  0.13561828  0.57082151    -0.90800
O206        O  0.77770072  0.17763852  0.60355033    -0.76700
O207        O  0.75000387  0.15048537  0.56495289    -0.86200
O208        O  0.79625545  0.14360710  0.61091689    -0.85900
O209        O  0.76436537  0.11972606  0.53461484    -0.72700
O210        O  0.80652665  0.11355612  0.57789381    -0.84800
Zr211      Zr  0.71593587  0.10773990  0.62240739     2.26400
Zr212      Zr  0.71424492  0.13031855  0.54651262     2.06300
Zr213      Zr  0.80096300  0.11761309  0.63361905     2.10000
Zr214      Zr  0.74658415  0.15459997  0.62032522     1.78800
O215        O  0.82674034  0.09294498  0.64897336    -0.93600
O216        O  0.70832206  0.17406196  0.60376350    -0.41400
O217        O  0.75066659  0.12833576  0.64279048    -0.78000
O218        O  0.70992782  0.13466481  0.60221437    -0.96700
O219        O  0.72021794  0.10392357  0.56693618    -0.90000
O220        O  0.76644374  0.09731426  0.61347886    -0.92900
C221        C  0.79878981  0.17966309  0.58266339     1.00900
C222        C  0.86722469  0.12792413  0.59256810     1.13800
C223        C  0.75657647  0.14861002  0.48875165     1.04600
O224        O  0.67824909  0.15083648  0.52964483    -0.95000
O225        O  0.66119231  0.12589552  0.56238009    -0.90800
O226        O  0.66241065  0.11235944  0.60793566    -0.83900
C227        C  0.64789811  0.11927829  0.58574158     1.11200
O228        O  0.80554594  0.09053441  0.51250983    -0.97000
Zr229      Zr  0.77104497  0.09401905  0.55759002     1.88900
O230        O  0.71207959  0.07777603  0.61391745    -0.73600
O231        O  0.69822748  0.11158883  0.50447582    -0.52900
O232        O  0.74307189  0.08234460  0.51281375    -0.97600
O233        O  0.81298372  0.07527122  0.56726916    -0.54800
O234        O  0.74716995  0.07017282  0.57663064    -0.74200
C235        C  0.72623685  0.06695286  0.59660178     0.98200
O236        O  0.67196050  0.10318173  0.65690606    -0.63000
O237        O  0.82947797  0.13385345  0.67234993    -0.57800
O238        O  0.72907879  0.10645688  0.67787282    -0.94500
O239        O  0.77946080  0.11219469  0.68547494    -0.92900
O240        O  0.76936201  0.16562171  0.66868485    -0.93200
O241        O  0.71024447  0.16103192  0.66263921    -0.92000
C242        C  0.75252682  0.10863871  0.69569891     1.17000
H243        H  0.81222061  0.15076205  0.61865275     0.33000
H244        H  0.69008815  0.13911736  0.60785874     0.43800
H245        H  0.76970992  0.08734503  0.62420743     0.37300
H246        H  0.76702517  0.11823865  0.51214314     0.33800
H247        H  0.71337625  0.18416519  0.61570350     0.25600
H248        H  0.68110863  0.11720208  0.49408594     0.31600
H249        H  0.72293922  0.07905548  0.52140581     0.37500
H250        H  0.79174547  0.16587840  0.66456001     0.31900
H251        H  0.81375797  0.13839854  0.68703191     0.30800
H252        H  0.84519269  0.09670049  0.66059901     0.32500
H253        H  0.80752961  0.06523785  0.55529220     0.31500
H254        H  0.69629535  0.15160598  0.66300935     0.35400
H255        H  0.67677316  0.09332991  0.66857953     0.28200
H256        H  0.84208192  0.14748214  0.50590099     0.32400
H257        H  0.80192839  0.07944439  0.50394694     0.35300
H258        H  0.84085818  0.12591274  0.68481033     0.27900
H259        H  0.67202260  0.11214322  0.67291611     0.40700
H260        H  0.67554467  0.15816674  0.54830648     0.30800
H261        H  0.71383956  0.17633536  0.58171772     0.38400
H262        H  0.81062572  0.07244356  0.58961345     0.30300
H263        H  0.71519645  0.11165950  0.48890327     0.30300
H264        H  0.83096282  0.12975604  0.49790762     0.30600
Zr265      Zr  0.23876687  0.88399139  0.00276618     2.17500
O266        O  0.19276355  0.88437188  0.03586701    -0.51800
O267        O  0.23871880  0.91292193  0.02061709    -0.75000
O268        O  0.24989978  0.87756205  0.05708622    -0.81700
O269        O  0.18771823  0.87770585  0.92983255    -0.83500
O270        O  0.30037021  0.87131287  0.06248708    -0.79100
O271        O  0.18620744  0.88184261  0.98289734    -0.90800
O272        O  0.27473762  0.92596971  0.99255014    -0.76700
O273        O  0.28967592  0.89427416  0.00407179    -0.86200
O274        O  0.24575891  0.89698091  0.95396674    -0.85900
O275        O  0.27109471  0.86031441  0.00754315    -0.72700
O276        O  0.23256283  0.86305418  0.96233553    -0.84800
Zr277      Zr  0.32564085  0.86384685  0.91992620     2.26400
Zr278      Zr  0.32228905  0.87110668  0.00917696     2.06300
Zr279      Zr  0.24109652  0.87615951  0.91377864     2.10000
Zr280      Zr  0.29696803  0.90687951  0.95492267     1.78800
O281        O  0.20550325  0.86107938  0.87997723    -0.93600
O282        O  0.33984715  0.92170148  0.97839126    -0.41400
O283        O  0.29205001  0.88665974  0.91372541    -0.78000
O284        O  0.33104759  0.88453196  0.96057292    -0.96700
O285        O  0.31743501  0.85069763  0.96830322    -0.90000
O286        O  0.27467145  0.85336451  0.91786197    -0.92900
C287        C  0.25421632  0.92571738  0.01417237     1.00900
C288        C  0.17316868  0.87969994  0.95597565     1.13800
C289        C  0.27309376  0.87351770  0.07372862     1.04600
O290        O  0.35065630  0.89146474  0.03956577    -0.95000
O291        O  0.37624050  0.86835177  0.99384812    -0.90800
O292        O  0.37796545  0.86323784  0.94094976    -0.83900
C293        C  0.39098125  0.86566782  0.96785945     1.11200
O294        O  0.22550788  0.82797536  0.99599551    -0.97000
Zr295      Zr  0.26660019  0.84030126  0.96591061     1.88900
O296        O  0.33592450  0.83495499  0.91162536    -0.73600
O297        O  0.34360472  0.84785637  0.03530765    -0.52900
O298        O  0.28369344  0.82170609  0.00562713    -0.97600
O299        O  0.23077393  0.82610731  0.93077722    -0.54800
O300        O  0.30067728  0.82085107  0.93905012    -0.74200
C301        C  0.32437824  0.82162175  0.92102350     0.98200
O302        O  0.36354478  0.87368928  0.88270917    -0.63000
O303        O  0.22843832  0.90091744  0.88711481    -0.57800
O304        O  0.31242030  0.86354633  0.86385589    -0.94500
O305        O  0.26140312  0.86953161  0.86186926    -0.92900
O306        O  0.27073415  0.92633008  0.92253463    -0.93200
O307        O  0.33161513  0.91851023  0.91663732    -0.92000
C308        C  0.28716958  0.86573274  0.84884720     1.17000
H309        H  0.23087826  0.90551678  0.95151004     0.33000
H310        H  0.35137622  0.88913757  0.96002080     0.43800
H311        H  0.27228664  0.84580899  0.90024793     0.37300
H312        H  0.26640806  0.85435316  0.02609315     0.33800
H313        H  0.33407979  0.93323729  0.97703769     0.25600
H314        H  0.35306330  0.85240018  0.05478880     0.31600
H315        H  0.30617721  0.82075387  0.00247023     0.37500
H316        H  0.27813193  0.93701011  0.93040368     0.31900
H317        H  0.22927169  0.89790915  0.86439477     0.30800
H318        H  0.19633992  0.86926371  0.86630133     0.32500
H319        H  0.24346103  0.82159570  0.91321378     0.31500
H320        H  0.32686745  0.91276267  0.89646141     0.35400
H321        H  0.37304853  0.88320603  0.89346847     0.28200
H322        H  0.19677303  0.89250331  0.05293790     0.32400
H323        H  0.22492580  0.81650019  0.98870374     0.35300
H324        H  0.20633060  0.90270683  0.89157235     0.27900
H325        H  0.37999017  0.86541181  0.88141152     0.40700
H326        H  0.36465010  0.88520884  0.05290083     0.30800
H327        H  0.33856218  0.91949905  0.00112519     0.38400
H328        H  0.21847285  0.83475828  0.92128751     0.30300
H329        H  0.32548177  0.84182334  0.04269828     0.30300
H330        H  0.19239809  0.87385225  0.04634349     0.30600
Zr331      Zr  0.74199855  0.88801853  0.98560688     2.17500
O332        O  0.69708122  0.89173132  0.01975576    -0.51800
O333        O  0.74269864  0.91754357  0.99624060    -0.75000
O334        O  0.75224070  0.88374402  0.04098632    -0.81700
O335        O  0.68913150  0.87911559  0.91557444    -0.83500
O336        O  0.80205532  0.87654607  0.04706833    -0.79100
O337        O  0.68911861  0.88555625  0.96779947    -0.90800
O338        O  0.77898600  0.92865622  0.96537792    -0.76700
O339        O  0.79382185  0.89701439  0.98551965    -0.86200
O340        O  0.75017586  0.89914401  0.93514203    -0.85900
O341        O  0.77151883  0.86369166  0.99397515    -0.72700
O342        O  0.73352191  0.86594868  0.94813566    -0.84800
Zr343      Zr  0.82575592  0.86290871  0.90532048     2.26400
Zr344      Zr  0.82347246  0.87313373  0.99394488     2.06300
Zr345      Zr  0.74240264  0.87726170  0.89796186     2.10000
Zr346      Zr  0.80262302  0.90735597  0.93441362     1.78800
O347        O  0.70176674  0.86594058  0.86477173    -0.93600
O348        O  0.84544652  0.92160916  0.95934844    -0.41400
O349        O  0.79448252  0.88624077  0.89564542    -0.78000
O350        O  0.83406547  0.88449962  0.94361015    -0.96700
O351        O  0.81674759  0.85170299  0.95549512    -0.90000
O352        O  0.77375078  0.85375273  0.90513702    -0.92900
C353        C  0.75792745  0.92973838  0.98635237     1.00900
C354        C  0.67523447  0.88216417  0.94183653     1.13800
C355        C  0.77512810  0.87985337  0.05811334     1.04600
O356        O  0.85580587  0.89263058  0.02220120    -0.95000
O357        O  0.87587761  0.86667925  0.97876031    -0.90800
O358        O  0.87829346  0.86213219  0.92568900    -0.83900
C359        C  0.89076936  0.86368688  0.95307280     1.11200
O360        O  0.72097928  0.83332674  0.98463876    -0.97000
Zr361      Zr  0.76526204  0.84245782  0.95480325     1.88900
O362        O  0.83518859  0.83389552  0.90246750    -0.73600
O363        O  0.84082967  0.85043130  0.02440568    -0.52900
O364        O  0.78045927  0.82519613  0.99751881    -0.97600
O365        O  0.72959178  0.82679895  0.92198975    -0.54800
O366        O  0.79902894  0.82141795  0.93157891    -0.74200
C367        C  0.82314140  0.82117056  0.91388862     0.98200
O368        O  0.86269639  0.86960839  0.86443910    -0.63000
O369        O  0.73495594  0.90211412  0.86968745    -0.57800
O370        O  0.81102171  0.85927402  0.84999782    -0.94500
O371        O  0.76040506  0.86608676  0.84781124    -0.92900
O372        O  0.78382511  0.92676199  0.89706179    -0.93200
O373        O  0.84176587  0.91502822  0.89663480    -0.92000
C374        C  0.78545234  0.86075824  0.83522949     1.17000
H375        H  0.73630719  0.90803345  0.93164491     0.33000
H376        H  0.85488781  0.88844129  0.94273725     0.43800
H377        H  0.77046985  0.84550957  0.88892861     0.37300
H378        H  0.76626356  0.85870159  0.01347994     0.33800
H379        H  0.84090526  0.93321217  0.95669694     0.25600
H380        H  0.84957780  0.85538819  0.04388328     0.31600
H381        H  0.80255950  0.82294495  0.99389153     0.37500
H382        H  0.79252640  0.93726042  0.90439062     0.31900
H383        H  0.74573274  0.90019463  0.84934832     0.30800
H384        H  0.69893509  0.87376174  0.84785301     0.32500
H385        H  0.74238016  0.82147525  0.90536209     0.31500
H386        H  0.85224063  0.90477322  0.89052316     0.35400
H387        H  0.87654073  0.87780294  0.87415377     0.28200
H388        H  0.70281665  0.90006220  0.03589971     0.32400
H389        H  0.72193007  0.82137057  0.98351763     0.35300
H390        H  0.71287747  0.90217020  0.86418434     0.27900
H391        H  0.87558728  0.85981238  0.86135821     0.40700
H392        H  0.87149216  0.88601031  0.03267199     0.30800
H393        H  0.84266527  0.91996234  0.98215671     0.38400
H394        H  0.71747969  0.83498637  0.91087783     0.30300
H395        H  0.82171920  0.84514802  0.03140669     0.30300
H396        H  0.69485474  0.88159765  0.03134852     0.30600
Zr397      Zr  0.25171369  0.10839193  0.13103054     2.17500
O398        O  0.29438126  0.10233584  0.16591915    -0.51800
O399        O  0.25228371  0.07836249  0.12349869    -0.75000
O400        O  0.23597895  0.10551034  0.18590374    -0.81700
O401        O  0.30873966  0.12641364  0.07249237    -0.83500
O402        O  0.18534548  0.11166135  0.19102420    -0.79100
O403        O  0.30570110  0.11252795  0.11759929    -0.90800
O404        O  0.21548112  0.07133518  0.08807799    -0.76700
O405        O  0.20114076  0.09915706  0.12001527    -0.86200
O406        O  0.24943357  0.10462144  0.07535636    -0.85900
O407        O  0.21890846  0.13033415  0.15006818    -0.72700
O408        O  0.26047001  0.13483693  0.10987634    -0.84800
Zr409      Zr  0.17183224  0.14150966  0.06031804     2.26400
Zr410      Zr  0.16816709  0.12054767  0.13932523     2.06300
Zr411      Zr  0.25714985  0.13077143  0.05419176     2.10000
Zr412      Zr  0.19877340  0.09561092  0.06407065     1.78800
O413        O  0.29323482  0.15201103  0.04103412    -0.93600
O414        O  0.15308642  0.07884393  0.06825854    -0.41400
O415        O  0.20698234  0.12115375  0.04083619    -0.78000
O416        O  0.16366165  0.11562038  0.08318800    -0.96700
O417        O  0.17496608  0.14630496  0.11595745    -0.90000
O418        O  0.22214005  0.15155733  0.07121740    -0.92900
C419        C  0.23620018  0.06773773  0.10786605     1.00900
C420        C  0.32097452  0.11943428  0.09584355     1.13800
C421        C  0.21134578  0.10727821  0.20246581     1.04600
O422        O  0.13644013  0.09846617  0.15727566    -0.95000
O423        O  0.11601232  0.12473831  0.12167562    -0.90800
O424        O  0.11758687  0.13796008  0.07547053    -0.83900
C425        C  0.10304816  0.13113377  0.09796383     1.11200
O426        O  0.26024186  0.16366840  0.16904652    -0.97000
Zr427      Zr  0.22533282  0.15602321  0.12637033     1.88900
O428        O  0.16290446  0.16996371  0.07128493    -0.73600
O429        O  0.14529198  0.14051813  0.17572598    -0.52900
O430        O  0.19917952  0.16546974  0.17433189    -0.97600
O431        O  0.26620588  0.17449354  0.11176192    -0.54800
O432        O  0.19638164  0.17940085  0.10822688    -0.74200
C433        C  0.17437559  0.18138219  0.08855009     0.98200
O434        O  0.13677194  0.14237995  0.01571403    -0.63000
O435        O  0.27587856  0.11275009  0.01190264    -0.57800
O436        O  0.19110646  0.14957116  0.00835847    -0.94500
O437        O  0.24252946  0.14477510  0.00789626    -0.92900
O438        O  0.23060845  0.08267201  0.02324947    -0.93200
O439        O  0.17113586  0.09138637  0.01479859    -0.92000
C440        C  0.21794302  0.15007066  0.99537505     1.17000
H441        H  0.26477726  0.09695658  0.06799866     0.33000
H442        H  0.14386943  0.11125010  0.07748698     0.43800
H443        H  0.22597750  0.16144440  0.06036745     0.37300
H444        H  0.22191860  0.13278900  0.17216333     0.33800
H445        H  0.15906748  0.06823291  0.05869071     0.25600
H446        H  0.12678933  0.13516658  0.18408070     0.31600
H447        H  0.19531177  0.17711364  0.17141485     0.37500
H448        H  0.22707676  0.07094313  0.02532588     0.31900
H449        H  0.28507417  0.12000457  0.99637284     0.30800
H450        H  0.30308931  0.14820065  0.02110345     0.32500
H451        H  0.25890452  0.17965814  0.09246199     0.31500
H452        H  0.15772199  0.10100772  0.01336348     0.35400
H453        H  0.12541420  0.13202774  0.01564831     0.28200
H454        H  0.28879677  0.09217747  0.17621777     0.32400
H455        H  0.25709163  0.17541206  0.17300003     0.35300
H456        H  0.29366414  0.10707683  0.02095843     0.27900
H457        H  0.12131698  0.15078135  0.02140510     0.40700
H458        H  0.14527323  0.08866989  0.14676771     0.30800
H459        H  0.15108203  0.07684876  0.09102106     0.38400
H460        H  0.28329037  0.16737901  0.10449809     0.30300
H461        H  0.15955240  0.14123620  0.19380101     0.30300
H462        H  0.29388545  0.11078333  0.18294233     0.30600
Zr463      Zr  0.66954071  0.14743629  0.13381694     2.17500
O464        O  0.62719818  0.14920534  0.17163337    -0.51800
O465        O  0.66128729  0.17648461  0.12700183    -0.75000
O466        O  0.68602086  0.15268123  0.18886877    -0.81700
O467        O  0.61563168  0.13036887  0.06917713    -0.83500
O468        O  0.73685687  0.14684107  0.19194928    -0.79100
O469        O  0.61661695  0.14268176  0.11785400    -0.90800
O470        O  0.69503715  0.18526094  0.09057124    -0.76700
O471        O  0.72048910  0.15712623  0.12727377    -0.86200
O472        O  0.67485289  0.15262541  0.07899199    -0.85900
O473        O  0.70199875  0.12564616  0.15014745    -0.72700
O474        O  0.66165981  0.12219433  0.10538003    -0.84800
Zr475      Zr  0.75237347  0.11554024  0.06056776     2.26400
Zr476      Zr  0.75325164  0.13533702  0.14201971     2.06300
Zr477      Zr  0.66817891  0.12742091  0.05054263     2.10000
Zr478      Zr  0.72580839  0.16224502  0.07274576     1.78800
O479        O  0.64052499  0.10385214  0.02995588    -0.93600
O480        O  0.76237953  0.18170586  0.09482861    -0.41400
O481        O  0.71937427  0.13708528  0.04428694    -0.78000
O482        O  0.76029799  0.14125416  0.08766023    -0.96700
O483        O  0.74649164  0.10982231  0.11472074    -0.90000
O484        O  0.70109851  0.10597359  0.06599461    -0.92900
C485        C  0.67278741  0.18762016  0.11006283     1.00900
C486        C  0.60247297  0.13633369  0.09404560     1.13800
C487        C  0.71151317  0.15184993  0.20412706     1.04600
O488        O  0.78782906  0.15673345  0.16002801    -0.95000
O489        O  0.80596789  0.13004279  0.12764285    -0.90800
O490        O  0.80566427  0.11808361  0.07886951    -0.83900
C491        C  0.81960015  0.12403573  0.10321553     1.11200
O492        O  0.66095756  0.09253196  0.16277556    -0.97000
Zr493      Zr  0.69493605  0.10080521  0.12050480     1.88900
O494        O  0.75270653  0.08578838  0.05993495    -0.73600
O495        O  0.77214651  0.11690541  0.18115926    -0.52900
O496        O  0.72290477  0.08866778  0.16338926    -0.97600
O497        O  0.65094327  0.08454989  0.10363210    -0.54800
O498        O  0.71730099  0.07715054  0.09481160    -0.74200
C499        C  0.73771460  0.07451453  0.07347635     0.98200
O500        O  0.79110366  0.11073171  0.01957159    -0.63000
O501        O  0.64213770  0.14548180  0.01504611    -0.57800
O502        O  0.74006372  0.11627793  0.00501014    -0.94500
O503        O  0.68955310  0.12183578  0.99781345    -0.92900
O504        O  0.70613078  0.17288200  0.02392017    -0.93200
O505        O  0.76594617  0.16912390  0.03543380    -0.92000
C506        C  0.71669169  0.11848896  0.98729569     1.17000
H507        H  0.65974920  0.16031289  0.07215633     0.33000
H508        H  0.78060043  0.14540199  0.08369784     0.43800
H509        H  0.69720784  0.09657275  0.05259211     0.37300
H510        H  0.69856067  0.12340934  0.17204993     0.33800
H511        H  0.75743608  0.19198183  0.08463234     0.25600
H512        H  0.78626102  0.12354635  0.19439803     0.31600
H513        H  0.74130816  0.08363752  0.15340415     0.37500
H514        H  0.68589621  0.17766756  0.02948743     0.31900
H515        H  0.65827693  0.14914159  0.00043507     0.30800
H516        H  0.62387078  0.10832085  0.01699862     0.32500
H517        H  0.65551967  0.08117152  0.08155315     0.31500
H518        H  0.76592942  0.16009672  0.01958012     0.35400
H519        H  0.80389130  0.12061246  0.01934608     0.28200
H520        H  0.62911351  0.15991407  0.18249311     0.32400
H521        H  0.66372859  0.08068455  0.16395205     0.35300
H522        H  0.62882599  0.13833138  0.00192393     0.27900
H523        H  0.80479654  0.10213629  0.02719625     0.40700
H524        H  0.79297560  0.16265065  0.14082702     0.30800
H525        H  0.75580722  0.18351486  0.11699331     0.38400
H526        H  0.63378427  0.09234925  0.10202463     0.30300
H527        H  0.75428121  0.11492962  0.19499023     0.30300
H528        H  0.63180732  0.14122496  0.18785765     0.30600
Zr529      Zr  0.50725704  0.38500548  0.52698373     2.17500
O530        O  0.55137055  0.38269949  0.49145705    -0.51800
O531        O  0.50998876  0.41426795  0.51931462    -0.75000
O532        O  0.49317508  0.38320851  0.47166379    -0.81700
O533        O  0.56078375  0.37551023  0.59481502    -0.83500
O534        O  0.44235285  0.37779567  0.46659938    -0.79100
O535        O  0.56070608  0.38326558  0.54409512    -0.90800
O536        O  0.47598307  0.42680553  0.55244451    -0.76700
O537        O  0.45709684  0.39641939  0.53074668    -0.86200
O538        O  0.50236864  0.39578896  0.57939105    -0.85900
O539        O  0.47310490  0.36256765  0.51593757    -0.72700
O540        O  0.51366009  0.36211904  0.55997453    -0.84800
Zr541      Zr  0.42194979  0.36267607  0.60671612     2.26400
Zr542      Zr  0.42284174  0.37436157  0.51998661     2.06300
Zr543      Zr  0.50786040  0.37303045  0.61220115     2.10000
Zr544      Zr  0.45173019  0.40655432  0.58360769     1.78800
O545        O  0.54155110  0.35328531  0.63577322    -0.93600
O546        O  0.40951363  0.42295767  0.56460017    -0.41400
O547        O  0.45743146  0.38438242  0.61791893    -0.78000
O548        O  0.41598900  0.38531590  0.57275184    -0.96700
O549        O  0.42742204  0.35200434  0.55424120    -0.90000
O550        O  0.47230604  0.35130729  0.60309390    -0.92900
C551        C  0.49619867  0.42698649  0.53049948     1.00900
C552        C  0.57463991  0.37933149  0.56939015     1.13800
C553        C  0.46912355  0.38047292  0.45497187     1.04600
O554        O  0.39303420  0.39607798  0.49757393    -0.95000
O555        O  0.36977408  0.37071684  0.53519495    -0.90800
O556        O  0.36914721  0.36466536  0.58700360    -0.83900
C557        C  0.35564089  0.36764269  0.56087363     1.11200
O558        O  0.51312544  0.32885735  0.51228171    -0.97000
Zr559      Zr  0.47746129  0.34062170  0.55100387     1.88900
O560        O  0.41145360  0.33356540  0.60897854    -0.73600
O561        O  0.40063521  0.35316130  0.48621111    -0.52900
O562        O  0.45227251  0.32424242  0.51007720    -0.97600
O563        O  0.51601372  0.32392457  0.57595001    -0.54800
O564        O  0.44617906  0.32075243  0.57706653    -0.74200
C565        C  0.42332289  0.32067068  0.59624149     0.98200
O566        O  0.38404385  0.36729006  0.64853008    -0.63000
O567        O  0.52600709  0.39478491  0.64737610    -0.57800
O568        O  0.43792340  0.36292173  0.66225578    -0.94500
O569        O  0.48987876  0.36585781  0.66334045    -0.92900
O570        O  0.47763829  0.42366269  0.62285111    -0.93200
O571        O  0.41776336  0.41683909  0.62531466    -0.92000
C572        C  0.46392581  0.36359999  0.67669263     1.17000
H573        H  0.51774485  0.40392501  0.58388541     0.33000
H574        H  0.39597258  0.39022288  0.57529457     0.43800
H575        H  0.47503156  0.34299722  0.61830881     0.37300
H576        H  0.47671403  0.35778498  0.49526081     0.33800
H577        H  0.41505069  0.43421744  0.57071621     0.25600
H578        H  0.39011840  0.35896300  0.46928847     0.31600
H579        H  0.43016140  0.32454862  0.51563205     0.37500
H580        H  0.47613571  0.43473150  0.61479691     0.31900
H581        H  0.53388839  0.38928765  0.66607994     0.30800
H582        H  0.55185641  0.35927821  0.65327325     0.32500
H583        H  0.50681479  0.32086668  0.59624859     0.31500
H584        H  0.40350403  0.40780849  0.62921668     0.35400
H585        H  0.37290544  0.37726108  0.64309657     0.28200
H586        H  0.54943233  0.39169325  0.47675602     0.32400
H587        H  0.51203120  0.31702759  0.51492105     0.35300
H588        H  0.54462881  0.39901760  0.63706163     0.27900
H589        H  0.36881874  0.35847912  0.64593224     0.40700
H590        H  0.37725289  0.39052218  0.48449395     0.30800
H591        H  0.41166124  0.42244232  0.54138777     0.38400
H592        H  0.53271826  0.33151230  0.58187009     0.30300
H593        H  0.41843440  0.34783148  0.47564679     0.30300
H594        H  0.54803499  0.37272921  0.47843681     0.30600
Zr595      Zr  0.00494756  0.38021531  0.49703622     2.17500
O596        O  0.04729873  0.37420424  0.46071751    -0.51800
O597        O  0.00387030  0.40906641  0.48532623    -0.75000
O598        O  0.98875698  0.38030853  0.44275984    -0.81700
O599        O  0.05997403  0.37658081  0.56578708    -0.83500
O600        O  0.93922607  0.37192067  0.43867486    -0.79100
O601        O  0.05815597  0.38295013  0.51424017    -0.90800
O602        O  0.96565729  0.42082054  0.51437599    -0.76700
O603        O  0.95376884  0.39007045  0.50101854    -0.86200
O604        O  0.00040631  0.39199530  0.54850274    -0.85900
O605        O  0.97302296  0.35672093  0.48780079    -0.72700
O606        O  0.01437225  0.35833665  0.53171322    -0.84800
Zr607      Zr  0.92454586  0.35777896  0.58036271     2.26400
Zr608      Zr  0.92162943  0.36699583  0.49248166     2.06300
Zr609      Zr  0.00872496  0.37027164  0.58315459     2.10000
Zr610      Zr  0.94914279  0.40167222  0.55267593     1.78800
O611        O  0.04798897  0.35264244  0.60419650    -0.93600
O612        O  0.90264166  0.41613432  0.53849099    -0.41400
O613        O  0.95775193  0.38062209  0.58906542    -0.78000
O614        O  0.91545259  0.37927983  0.54435998    -0.96700
O615        O  0.92955403  0.34584250  0.52868091    -0.90000
O616        O  0.97554454  0.34743315  0.57608747    -0.92900
C617        C  0.98641705  0.42116791  0.49295917     1.00900
C618        C  0.07272500  0.38069293  0.54003222     1.13800
C619        C  0.96469789  0.37677763  0.42672258     1.04600
O620        O  0.88639948  0.38494574  0.46608247    -0.95000
O621        O  0.86935344  0.36278215  0.51062741    -0.90800
O622        O  0.87096539  0.35797723  0.56302827    -0.83900
C623        C  0.85634727  0.36011284  0.53717607     1.11200
O624        O  0.02439461  0.32540118  0.49433615    -0.97000
Zr625      Zr  0.98047283  0.33565652  0.52473573     1.88900
O626        O  0.91404265  0.32878819  0.58225049    -0.73600
O627        O  0.90442347  0.34301630  0.46300658    -0.52900
O628        O  0.96450367  0.31887050  0.47960837    -0.97600
O629        O  0.01411894  0.31847983  0.55517504    -0.54800
O630        O  0.94537940  0.31590045  0.54674559    -0.74200
C631        C  0.92355029  0.31596118  0.56725749     0.98200
O632        O  0.88939388  0.36501722  0.62336367    -0.63000
O633        O  0.02188922  0.39312606  0.61793412    -0.57800
O634        O  0.94299827  0.35691544  0.63531477    -0.94500
O635        O  0.99444621  0.36184568  0.63471819    -0.92900
O636        O  0.97881177  0.42188738  0.58220541    -0.93200
O637        O  0.92080710  0.41176504  0.59876032    -0.92000
C638        C  0.96945968  0.35828905  0.64881563     1.17000
H639        H  0.01513960  0.40056991  0.55187101     0.33000
H640        H  0.89507887  0.38371578  0.54712022     0.43800
H641        H  0.97919306  0.33945738  0.59176780     0.37300
H642        H  0.97669157  0.35212206  0.46696153     0.33800
H643        H  0.90659232  0.42752737  0.54501069     0.25600
H644        H  0.88783061  0.34696040  0.44932697     0.31600
H645        H  0.94236812  0.31684716  0.48311966     0.37500
H646        H  0.96994394  0.43237765  0.57623225     0.31900
H647        H  0.00249871  0.39596251  0.62906190     0.30800
H648        H  0.05908138  0.35945542  0.61997528     0.32500
H649        H  0.00068141  0.31328989  0.57073742     0.31500
H650        H  0.90719615  0.40271775  0.60435733     0.35400
H651        H  0.87746386  0.37436385  0.61600547     0.28200
H652        H  0.04738039  0.38304075  0.44553059     0.32400
H653        H  0.02316293  0.31347164  0.49496467     0.35300
H654        H  0.03510718  0.38848756  0.63428908     0.27900
H655        H  0.87445337  0.35603522  0.62414316     0.40700
H656        H  0.88012886  0.39300736  0.48257589     0.30800
H657        H  0.90296763  0.41613133  0.51519435     0.38400
H658        H  0.02696689  0.32607256  0.56782816     0.30300
H659        H  0.92152012  0.34029538  0.44834200     0.30300
H660        H  0.04084867  0.36446334  0.44835602     0.30600
Zr661      Zr  0.00179626  0.59856043  0.36553671     2.17500
O662        O  0.95894453  0.58843061  0.33364606    -0.51800
O663        O  0.99812137  0.56946503  0.37795079    -0.75000
O664        O  0.01350966  0.59528033  0.30920034    -0.81700
O665        O  0.94760437  0.61912989  0.42563365    -0.83500
O666        O  0.06220679  0.60340761  0.29918952    -0.79100
O667        O  0.94852721  0.60518934  0.37881547    -0.90800
O668        O  0.03803196  0.56272014  0.40911038    -0.76700
O669        O  0.05387007  0.59009422  0.37081013    -0.86200
O670        O  0.00891094  0.59549007  0.42058427    -0.85900
O671        O  0.03181199  0.62076435  0.34554499    -0.72700
O672        O  0.99291822  0.62505574  0.38936392    -0.84800
Zr673      Zr  0.08382020  0.63406317  0.43203141     2.26400
Zr674      Zr  0.08396263  0.61183786  0.35066989     2.06300
Zr675      Zr  0.00010539  0.62170077  0.44424723     2.10000
Zr676      Zr  0.06126362  0.58763629  0.42629396     1.78800
O677        O  0.96451892  0.64197653  0.46571753    -0.93600
O678        O  0.10371354  0.56939628  0.41294234    -0.41400
O679        O  0.05203423  0.61317779  0.45236777    -0.78000
O680        O  0.09310738  0.60819427  0.40597021    -0.96700
O681        O  0.07652752  0.63771752  0.37697608    -0.90000
O682        O  0.03210851  0.64304517  0.42624995    -0.92900
C683        C  0.01401212  0.55914868  0.39327637     1.00900
C684        C  0.93431404  0.61275513  0.40137687     1.13800
C685        C  0.03563691  0.59823529  0.29008801     1.04600
O686        O  0.11427579  0.58818598  0.33481789    -0.95000
O687        O  0.13666969  0.61930820  0.36373701    -0.90800
O688        O  0.13651574  0.63256448  0.41151309    -0.83900
C689        C  0.15033211  0.62651590  0.38700161     1.11200
O690        O  0.98598442  0.65176636  0.33216342    -0.97000
Zr691      Zr  0.02501945  0.64661521  0.37164601     1.88900
O692        O  0.08837512  0.66288766  0.42453482    -0.73600
O693        O  0.10630782  0.62817515  0.30968903    -0.52900
O694        O  0.04678409  0.65716700  0.32354475    -0.97600
O695        O  0.98360506  0.66426893  0.39068535    -0.54800
O696        O  0.05344882  0.67086898  0.38874879    -0.74200
C697        C  0.07552425  0.67376133  0.40818468     0.98200
O698        O  0.12271263  0.63609900  0.47317936    -0.63000
O699        O  0.98226690  0.60342016  0.48428082    -0.57800
O700        O  0.06917919  0.64071055  0.48721703    -0.94500
O701        O  0.01818369  0.63535583  0.49142388    -0.92900
O702        O  0.03799380  0.57690985  0.47345350    -0.93200
O703        O  0.09959252  0.58507701  0.46749693    -0.92000
C704        C  0.04359419  0.64064165  0.50271292     1.17000
H705        H  0.99490580  0.58766101  0.42897169     0.33000
H706        H  0.11386089  0.60455814  0.40940944     0.43800
H707        H  0.02827592  0.65297383  0.43818565     0.37300
H708        H  0.02655533  0.62307088  0.32414124     0.33800
H709        H  0.09761485  0.55882019  0.42123774     0.25600
H710        H  0.11768855  0.62038670  0.29583049     0.31600
H711        H  0.06915629  0.65782503  0.32746349     0.37500
H712        H  0.03901852  0.58589545  0.48934992     0.31900
H713        H  0.97657707  0.61055340  0.50252680     0.30800
H714        H  0.95305533  0.63648000  0.48246087     0.32500
H715        H  0.99385639  0.67314078  0.40271686     0.31500
H716        H  0.11481177  0.59365385  0.46351228     0.35400
H717        H  0.13586915  0.62639066  0.47027736     0.28200
H718        H  0.96632759  0.57834388  0.32296011     0.32400
H719        H  0.98779438  0.66338464  0.32759393     0.35300
H720        H  0.96241139  0.59922900  0.47624485     0.27900
H721        H  0.13594259  0.64531572  0.46764257     0.40700
H722        H  0.13324904  0.59259169  0.32547432     0.30800
H723        H  0.10269940  0.56784712  0.38977532     0.38400
H724        H  0.97290244  0.65799252  0.40685662     0.30300
H725        H  0.08874005  0.63169191  0.29683076     0.30300
H726        H  0.95604492  0.59619673  0.31663262     0.30600
Zr727      Zr  0.58464955  0.63380388  0.35745164     2.17500
O728        O  0.62790089  0.63648822  0.32121181    -0.51800
O729        O  0.59247637  0.66327341  0.36071506    -0.75000
O730        O  0.56992219  0.63382298  0.30166020    -0.81700
O731        O  0.63731008  0.61839070  0.42309142    -0.83500
O732        O  0.51853676  0.62946655  0.29803446    -0.79100
O733        O  0.63722539  0.62730735  0.37298378    -0.90800
O734        O  0.55589960  0.67443861  0.39264785    -0.76700
O735        O  0.53328869  0.64383037  0.36137620    -0.86200
O736        O  0.57840892  0.64283077  0.41101091    -0.85900
O737        O  0.55213665  0.61109490  0.34343514    -0.72700
O738        O  0.59170590  0.61050348  0.38894592    -0.84800
Zr739      Zr  0.50059699  0.60704076  0.43286438     2.26400
Zr740      Zr  0.50056036  0.62117079  0.34896357     2.06300
Zr741      Zr  0.58472319  0.61954253  0.44255338     2.10000
Zr742      Zr  0.52700771  0.65261305  0.41486670     1.78800
O743        O  0.60874722  0.59759330  0.47042927    -0.93600
O744        O  0.48822567  0.67035076  0.39324969    -0.41400
O745        O  0.53339512  0.62948800  0.44624000    -0.78000
O746        O  0.49261055  0.63078474  0.40219844    -0.96700
O747        O  0.50703780  0.59764887  0.37985318    -0.90000
O748        O  0.55197847  0.59710724  0.42963568    -0.92900
C749        C  0.57930667  0.67554060  0.37447789     1.00900
C750        C  0.65092958  0.62190429  0.39731304     1.13800
C751        C  0.54481045  0.63259151  0.28590412     1.04600
O752        O  0.46452452  0.63982983  0.32566928    -0.95000
O753        O  0.44728729  0.61669696  0.36357737    -0.90800
O754        O  0.44754776  0.60804905  0.41376048    -0.83900
C755        C  0.43358876  0.61204069  0.38852398     1.11200
O756        O  0.59382125  0.57780848  0.33550645    -0.97000
Zr757      Zr  0.55865676  0.58824262  0.37609787     1.88900
O758        O  0.49991187  0.57756615  0.43722732    -0.73600
O759        O  0.48639142  0.59904634  0.31278399    -0.52900
O760        O  0.53227240  0.57345875  0.33370418    -0.97600
O761        O  0.60141564  0.57248165  0.39595779    -0.54800
O762        O  0.53501492  0.56638026  0.40363629    -0.74200
C763        C  0.51435764  0.56532321  0.42499948     0.98200
O764        O  0.46236915  0.60374025  0.47437254    -0.63000
O765        O  0.61315705  0.63938723  0.47450742    -0.57800
O766        O  0.51159904  0.61207679  0.48825106    -0.94500
O767        O  0.56079226  0.62068913  0.49476631    -0.92900
O768        O  0.54894484  0.66736377  0.45984557    -0.93200
O769        O  0.48935412  0.66125052  0.45447506    -0.92000
C770        C  0.53400138  0.61713944  0.50543524     1.17000
H771        H  0.59324859  0.65102862  0.41694071     0.33000
H772        H  0.47218513  0.63512703  0.40525202     0.43800
H773        H  0.55554502  0.58859188  0.44420544     0.37300
H774        H  0.55593872  0.60721695  0.32211380     0.33800
H775        H  0.49196668  0.68102289  0.40370085     0.25600
H776        H  0.47367253  0.59175907  0.32546833     0.31600
H777        H  0.52098379  0.56468353  0.34398111     0.37500
H778        H  0.56382653  0.65976764  0.46892977     0.31900
H779        H  0.62380590  0.63302340  0.49053367     0.30800
H780        H  0.62135391  0.60300289  0.48696792     0.32500
H781        H  0.59576096  0.57015065  0.41794119     0.31500
H782        H  0.48159467  0.65106794  0.46316275     0.35400
H783        H  0.44808383  0.61301801  0.47305117     0.28200
H784        H  0.62323101  0.64595951  0.30836591     0.32400
H785        H  0.59133667  0.56591252  0.33528204     0.35300
H786        H  0.62983275  0.64329107  0.46080392     0.27900
H787        H  0.45013904  0.59413457  0.46789374     0.40700
H788        H  0.47196442  0.65068477  0.33237077     0.30800
H789        H  0.49466687  0.67177319  0.37114264     0.38400
H790        H  0.61861783  0.58024704  0.39799875     0.30300
H791        H  0.47170639  0.60392683  0.29807450     0.30300
H792        H  0.62688036  0.62702551  0.30640409     0.30600
Zr793      Zr  0.07696725  0.36317563  0.08043494     2.17500
O794        O  0.11802995  0.36300892  0.11936167    -0.51800
O795        O  0.08405902  0.33400453  0.07910653    -0.75000
O796        O  0.05779517  0.36157314  0.13500557    -0.81700
O797        O  0.13394789  0.37515639  0.01535742    -0.83500
O798        O  0.00603282  0.36511144  0.13415208    -0.79100
O799        O  0.13052761  0.36738458  0.06614081    -0.90800
O800        O  0.05071174  0.32278295  0.04397219    -0.76700
O801        O  0.02563259  0.35381417  0.07456643    -0.86200
O802        O  0.07267475  0.35368621  0.02678723    -0.85900
O803        O  0.04536283  0.38631516  0.09331450    -0.72700
O804        O  0.08738816  0.38574065  0.04797449    -0.84800
Zr805      Zr  0.99850506  0.39092907  0.00150111     2.26400
Zr806      Zr  0.99388040  0.37704514  0.08504892     2.06300
Zr807      Zr  0.08177458  0.37638693  0.99437785     2.10000
Zr808      Zr  0.02111595  0.34461882  0.02137198     1.78800
O809        O  0.11043175  0.39703354  0.96720975    -0.93600
O810        O  0.98202353  0.32851687  0.04694566    -0.41400
O811        O  0.02986399  0.36745800  0.98915070    -0.78000
O812        O  0.98778101  0.36739358  0.03179565    -0.96700
O813        O  0.00359284  0.40036395  0.05459669    -0.90000
O814        O  0.05053859  0.39960950  0.00658853    -0.92900
C815        C  0.07240952  0.32176336  0.06425029     1.00900
C816        C  0.14601047  0.37167426  0.04195441     1.13800
C817        C  0.03104885  0.36169336  0.14810412     1.04600
O818        O  0.95239567  0.35967931  0.10238739    -0.95000
O819        O  0.94267674  0.38489154  0.07079153    -0.90800
O820        O  0.94451801  0.39078308  0.01912897    -0.83900
C821        C  0.92978897  0.38859268  0.04498395     1.11200
O822        O  0.09399801  0.41528096  0.10042850    -0.97000
Zr823      Zr  0.05578375  0.40861497  0.06026404     1.88900
O824        O  0.00063834  0.42053618  0.99716342    -0.73600
O825        O  0.98359063  0.39825805  0.12469422    -0.52900
O826        O  0.03290332  0.42495810  0.10294928    -0.97600
O827        O  0.09862539  0.42440727  0.04060999    -0.54800
O828        O  0.03362433  0.43104293  0.03345348    -0.74200
C829        C  0.01478154  0.43252065  0.01065600     0.98200
O830        O  0.96107627  0.39431601  0.95951427    -0.63000
O831        O  0.10866780  0.35516711  0.96421936    -0.57800
O832        O  0.01126804  0.38686733  0.94625810    -0.94500
O833        O  0.05992935  0.37709349  0.94104957    -0.92900
O834        O  0.04004655  0.32878483  0.97603009    -0.93200
O835        O  0.98176070  0.33527841  0.98456391    -0.92000
C836        C  0.03400182  0.38159956  0.92958732     1.17000
H837        H  0.08737539  0.34525008  0.02164029     0.33000
H838        H  0.96705749  0.36364785  0.02825556     0.43800
H839        H  0.05532100  0.40802245  0.99212904     0.37300
H840        H  0.04818519  0.38985964  0.11498544     0.33800
H841        H  0.99153977  0.32514500  0.06683054     0.25600
H842        H  0.97299184  0.40684295  0.11316433     0.31600
H843        H  0.01341696  0.42907184  0.09429217     0.37500
H844        H  0.03674083  0.31737977  0.98153995     0.31900
H845        H  0.09215583  0.34832532  0.95502745     0.30800
H846        H  0.12193331  0.39104092  0.95041378     0.32500
H847        H  0.09390052  0.42615090  0.01820097     0.31500
H848        H  0.97329629  0.34529260  0.97580795     0.35400
H849        H  0.94725332  0.38484130  0.96014231     0.28200
H850        H  0.11472289  0.35320103  0.13168711     0.32400
H851        H  0.09378121  0.42721817  0.10282532     0.35300
H852        H  0.11769757  0.36066707  0.94602077     0.27900
H853        H  0.94819302  0.40372095  0.96603384     0.40700
H854        H  0.94371725  0.36526344  0.12137224     0.30800
H855        H  0.96595392  0.33637436  0.05369758     0.38400
H856        H  0.11626686  0.41683099  0.03995593     0.30300
H857        H  0.96746019  0.39372506  0.13830809     0.30300
H858        H  0.11364087  0.37220489  0.13417232     0.30600
Zr859      Zr  0.57714750  0.37023015  0.10398491     2.17500
O860        O  0.61644294  0.37463921  0.14416783    -0.51800
O861        O  0.58578393  0.34103942  0.10248409    -0.75000
O862        O  0.55798451  0.36703655  0.15796128    -0.81700
O863        O  0.63359207  0.38023555  0.03802798    -0.83500
O864        O  0.50705310  0.37321221  0.15856290    -0.79100
O865        O  0.63128643  0.37254576  0.08889380    -0.90800
O866        O  0.55153762  0.32925176  0.06883500    -0.76700
O867        O  0.52652998  0.35975718  0.09700212    -0.86200
O868        O  0.57397351  0.36102047  0.05030958    -0.85900
O869        O  0.54282163  0.39247796  0.11606010    -0.72700
O870        O  0.58644719  0.39330049  0.07251059    -0.84800
Zr871      Zr  0.49764960  0.39665117  0.02408865     2.26400
Zr872      Zr  0.49210114  0.38193641  0.10724992     2.06300
Zr873      Zr  0.58193223  0.38409163  0.01880760     2.10000
Zr874      Zr  0.52340267  0.35081351  0.04347300     1.78800
O875        O  0.61016549  0.40690167  0.99830562    -0.93600
O876        O  0.48228733  0.33366496  0.06238123    -0.41400
O877        O  0.53104910  0.37401843  0.01224073    -0.78000
O878        O  0.48803687  0.37271731  0.05358582    -0.96700
O879        O  0.50097497  0.40566415  0.07759983    -0.90000
O880        O  0.54873627  0.40654680  0.03021427    -0.92900
C881        C  0.57376944  0.32855880  0.08860386     1.00900
C882        C  0.64623466  0.37623167  0.06389899     1.13800
C883        C  0.53181159  0.36868920  0.17196369     1.04600
O884        O  0.45808615  0.36034921  0.12327831    -0.95000
O885        O  0.43979825  0.38701885  0.09013893    -0.90800
O886        O  0.44358937  0.39647711  0.04078274    -0.83900
C887        C  0.42781803  0.39227786  0.06484533     1.11200
O888        O  0.58510996  0.42268675  0.12860545    -0.97000
Zr889      Zr  0.55222701  0.41531898  0.08406550     1.88900
O890        O  0.49774188  0.42626802  0.01953089    -0.73600
O891        O  0.47183885  0.40195502  0.14515206    -0.52900
O892        O  0.52374099  0.43287487  0.12089635    -0.97600
O893        O  0.59718427  0.43064053  0.06820763    -0.54800
O894        O  0.53166301  0.43728944  0.05436609    -0.74200
C895        C  0.51218448  0.43844468  0.03198711     0.98200
O896        O  0.46079661  0.39749543  0.98096454    -0.63000
O897        O  0.61127363  0.36480844  0.98622765    -0.57800
O898        O  0.51204938  0.39267603  0.96921727    -0.94500
O899        O  0.56181479  0.38460353  0.96524076    -0.92900
O900        O  0.54775736  0.33673403  0.99875373    -0.93200
O901        O  0.48772535  0.34115531  0.00314810    -0.92000
C902        C  0.53567764  0.38808017  0.95312052     1.17000
H903        H  0.58935858  0.35291005  0.04533189     0.33000
H904        H  0.46776942  0.36853006  0.04918586     0.43800
H905        H  0.55325172  0.41503165  0.01583850     0.37300
H906        H  0.54505940  0.39600458  0.13780362     0.33800
H907        H  0.48867256  0.32252314  0.05617952     0.25600
H908        H  0.46474092  0.41098747  0.13226282     0.31600
H909        H  0.51996553  0.42615975  0.13938664     0.37500
H910        H  0.56782265  0.33297973  0.00665097     0.31900
H911        H  0.59571128  0.35822806  0.97477743     0.30800
H912        H  0.60319261  0.40777681  0.97627857     0.32500
H913        H  0.59502387  0.43171685  0.04518502     0.31500
H914        H  0.48385777  0.35068718  0.99020407     0.35400
H915        H  0.44734318  0.38795478  0.98313387     0.28200
H916        H  0.61650866  0.36482011  0.15689623     0.32400
H917        H  0.58281628  0.43452727  0.13178171     0.35300
H918        H  0.62103557  0.37138094  0.96989748     0.27900
H919        H  0.44745400  0.40699652  0.98547944     0.40700
H920        H  0.44487982  0.36535418  0.13992826     0.30800
H921        H  0.48425303  0.33416960  0.08558768     0.38400
H922        H  0.61473549  0.42314160  0.07048027     0.30300
H923        H  0.45270948  0.39709503  0.15321242     0.30300
H924        H  0.60840381  0.38337340  0.15839778     0.30600
Zr925      Zr  0.52946620  0.61778840  0.92681369     2.17500
O926        O  0.57593458  0.61368749  0.95757064    -0.51800
O927        O  0.52761160  0.58822922  0.93088052    -0.75000
O928        O  0.51956467  0.61832627  0.98319950    -0.81700
O929        O  0.58092109  0.63034582  0.85812946    -0.83500
O930        O  0.46878703  0.62326046  0.99092242    -0.79100
O931        O  0.58210595  0.62144607  0.90804943    -0.90800
O932        O  0.48743292  0.57851687  0.90242459    -0.76700
O933        O  0.47835557  0.60779962  0.92372092    -0.86200
O934        O  0.52174169  0.60945939  0.87323406    -0.85900
O935        O  0.49787682  0.64052735  0.94375942    -0.72700
O936        O  0.53625264  0.64197299  0.89752040    -0.84800
Zr937      Zr  0.44321168  0.64540177  0.85638323     2.26400
Zr938      Zr  0.44667696  0.63000334  0.94032314     2.06300
Zr939      Zr  0.52741020  0.63359089  0.84417664     2.10000
Zr940      Zr  0.47005882  0.60005272  0.86999855     1.78800
O941        O  0.56268416  0.65198365  0.81884972    -0.93600
O942        O  0.42455215  0.58397896  0.88099543    -0.41400
O943        O  0.47616350  0.62352949  0.83918882    -0.78000
O944        O  0.43646986  0.62148561  0.88665792    -0.96700
O945        O  0.45168318  0.65374014  0.90985607    -0.90000
O946        O  0.49425274  0.65572889  0.85913390    -0.92900
C947        C  0.50933382  0.57675815  0.92202640     1.00900
C948        C  0.59537558  0.62606618  0.88277879     1.13800
C949        C  0.49593987  0.62025606  0.00106857     1.04600
O950        O  0.41672414  0.60749052  0.95940066    -0.95000
O951        O  0.39367433  0.63624727  0.92918299    -0.90800
O952        O  0.39119893  0.64332056  0.87800995    -0.83900
C953        C  0.37870846  0.64021571  0.90465002     1.11200
O954        O  0.54374937  0.67297705  0.94740684    -0.97000
Zr955      Zr  0.50257497  0.66391105  0.91239729     1.88900
O956        O  0.43479658  0.67450338  0.86087317    -0.73600
O957        O  0.42733328  0.64906548  0.98057448    -0.52900
O958        O  0.48353593  0.67766431  0.96014808    -0.97600
O959        O  0.53886716  0.68182560  0.88711033    -0.54800
O960        O  0.46935936  0.68548935  0.89504903    -0.74200
C961        C  0.44611746  0.68652777  0.87670644     0.98200
O962        O  0.40336205  0.64648624  0.81620467    -0.63000
O963        O  0.53961710  0.61157663  0.80680536    -0.57800
O964        O  0.45635933  0.64568973  0.80000217    -0.94500
O965        O  0.50841370  0.64440442  0.79621633    -0.92900
O966        O  0.49783749  0.58248391  0.83265407    -0.90000
O967        O  0.43713012  0.59373375  0.82507866    -0.92000
C968        C  0.48174461  0.64623033  0.78435782     1.17000
H969        H  0.53641579  0.60123996  0.86671764     0.33000
H970        H  0.41599470  0.61715828  0.88454217     0.43800
H971        H  0.49678335  0.66466131  0.84526637     0.37300
H972        H  0.50265407  0.64437093  0.96482812     0.33800
H973        H  0.43201080  0.57273820  0.88275747     0.25600
H974        H  0.41630307  0.64232250  0.99577404     0.31600
H975        H  0.46088721  0.67693890  0.95868837     0.37500
H976        H  0.49381390  0.57139902  0.83972337     0.31900
H977        H  0.52727133  0.61376700  0.78788166     0.30800
H978        H  0.56964694  0.64610289  0.79944828     0.32500
H979        H  0.52812609  0.68578689  0.86835860     0.31500
H980        H  0.42101577  0.60220526  0.82599950     0.35400
H981        H  0.39067062  0.63669357  0.81872395     0.28200
H982        H  0.57208847  0.60390226  0.96980596     0.32400
H983        H  0.54170193  0.68488814  0.94922724     0.35300
H984        H  0.56109795  0.61360614  0.80033183     0.27900
H985        H  0.38985469  0.65565182  0.82268736     0.40700
H986        H  0.40316273  0.61236330  0.97588831     0.30800
H987        H  0.41838688  0.58732601  0.90268022     0.38400
H988        H  0.55512006  0.67454788  0.87848393     0.30300
H989        H  0.44577590  0.65293585  0.99207830     0.30300
H990        H  0.57662059  0.62271133  0.97341624     0.30600
Zr991      Zr  0.02994613  0.61518065  0.92842145     2.17500
O992        O  0.07412773  0.61294324  0.96324996    -0.51800
O993        O  0.03106650  0.58544258  0.92799194    -0.75000
O994        O  0.01533049  0.61212536  0.98299365    -0.81700
O995        O  0.08427994  0.62960262  0.86467414    -0.83500
O996        O  0.96458158  0.61708730  0.99037894    -0.79100
O997        O  0.08344233  0.61884705  0.91311585    -0.90800
O998        O  0.99516793  0.57575544  0.89391260    -0.76700
O999        O  0.97989153  0.60443763  0.92108514    -0.86200
O1000       O  0.02605441  0.60862054  0.87363016    -0.85900
O1001       O  0.99622331  0.63685246  0.94643479    -0.72700
O1002       O  0.03704069  0.64041717  0.90275372    -0.84800
Zr1003     Zr  0.94688539  0.64406269  0.85599612     2.26400
Zr1004     Zr  0.94594606  0.62561821  0.93858219     2.06300
Zr1005     Zr  0.03211970  0.63375321  0.84801446     2.10000
Zr1006     Zr  0.97543872  0.59850941  0.86608391     1.78800
O1007       O  0.06612755  0.65542378  0.83233013    -0.93600
O1008       O  0.93114834  0.58146032  0.87616735    -0.41400
O1009       O  0.98194192  0.62308430  0.83851183    -0.78000
O1010       O  0.94020147  0.61913575  0.88327163    -0.96700
O1011       O  0.95157829  0.65030880  0.91104338    -0.90000
O1012       O  0.99707601  0.65490182  0.86347969    -0.92900
C1013       C  0.01551236  0.57378411  0.91513969     1.00900
C1014       C  0.09761122  0.62427837  0.88908261     1.13800
C1015       C  0.99130487  0.61299852  0.00052246     1.04600
O1016       O  0.91591208  0.60169127  0.94976672    -0.95000
O1017       O  0.89371720  0.63226615  0.92355570    -0.90800
O1018       O  0.89361923  0.64251380  0.87442137    -0.83900
C1019       C  0.87988691  0.63787581  0.89951149     1.11200
O1020       O  0.03999001  0.66968686  0.95661641    -0.97000
Zr1021     Zr  0.00132145  0.66138016  0.91807154     1.88900
O1022       O  0.93552752  0.67292931  0.86353555    -0.73600
O1023       O  0.92123208  0.64246914  0.97934642    -0.52900
O1024       O  0.97804214  0.67399533  0.96494809    -0.97600
O1025       O  0.03836243  0.68039434  0.89724433    -0.54800
O1026       O  0.96799054  0.68312517  0.90077234    -0.74200
C1027       C  0.94560756  0.68459747  0.88138538     0.98200
O1028       O  0.90760955  0.63850069  0.81637998    -0.63000
O1029       O  0.05254402  0.61531253  0.80715138    -0.57800
O1030       O  0.96448783  0.65088576  0.80236408    -0.94500
O1031       O  0.01513473  0.64434225  0.79907016    -0.92900
O1032       O  0.00525727  0.58282728  0.82725908    -0.93200
O1033       O  0.94454144  0.59297563  0.81935449    -0.92000
C1034       C  0.99031019  0.64977240  0.78727286     1.17000
H1035       H  0.04150272  0.60083189  0.86702078     0.33000
H1036       H  0.91994032  0.61485122  0.87924674     0.43800
H1037       H  0.00009124  0.66435170  0.85105225     0.37300
H1038       H  0.99961971  0.63975885  0.96831344     0.33800
H1039       H  0.93687054  0.57068570  0.86717612     0.25600
H1040       H  0.91073446  0.63476897  0.99312767     0.31600
H1041       H  0.95566017  0.67246222  0.96211613     0.37500
H1042       H  0.99834180  0.57153731  0.82960236     0.31900
H1043       H  0.06115516  0.62240879  0.79100220     0.30800
H1044       H  0.07739483  0.65095289  0.81372419     0.32500
H1045       H  0.02777133  0.68564879  0.87969638     0.31500
H1046       H  0.92861399  0.60153894  0.81996321     0.35400
H1047       H  0.90469880  0.64876957  0.80541924     0.28200
H1048       H  0.07163772  0.60253144  0.97382637     0.32400
H1049       H  0.03714022  0.68148735  0.95998952     0.35300
H1050       H  0.07077607  0.61021982  0.81659205     0.27900
H1051       H  0.91744476  0.63108402  0.80060575     0.40700
H1052       H  0.90137444  0.60531258  0.96652839     0.30800
H1053       H  0.93123034  0.58008255  0.89922536     0.38400
H1054       H  0.05431791  0.67351245  0.88692236     0.30300
H1055       H  0.93830507  0.64690481  0.99226074     0.30300
H1056       H  0.07128061  0.62137579  0.98006154     0.30600
C1057       C  0.62951644  0.62696253  0.88217612    -0.03600
C1058       C  0.64531656  0.62935677  0.85376062    -0.06200
C1059       C  0.67730363  0.63097831  0.85331642    -0.21300
C1060       C  0.69439033  0.63044907  0.88122834     0.24400
C1061       C  0.67865669  0.62773196  0.90964031    -0.18900
C1062       C  0.64664069  0.62602973  0.91006314    -0.08800
C1063       C  0.72845852  0.63237470  0.87933577    -0.19100
C1064       C  0.74654650  0.63590733  0.90431616    -0.23900
C1065       C  0.78062687  0.63709997  0.90232694     0.26500
C1066       C  0.79792905  0.63356352  0.92901700    -0.20700
C1067       C  0.82999761  0.63409794  0.92819832    -0.10300
C1068       C  0.84570591  0.63842142  0.90069659    -0.10900
C1069       C  0.82834002  0.64249966  0.87420492    -0.03800
C1070       C  0.79614409  0.64183662  0.87497912    -0.18900
H1071       H  0.63295555  0.63004416  0.83177114     0.10200
H1072       H  0.68872903  0.63285179  0.83103509     0.10200
H1073       H  0.69078232  0.62670383  0.93162154     0.09900
H1074       H  0.63528301  0.62416677  0.93236746     0.11000
H1075       H  0.73895927  0.63078541  0.85623294     0.11100
H1076       H  0.73644255  0.63740473  0.92757098     0.13000
H1077       H  0.78658261  0.63003696  0.95047001     0.09500
H1078       H  0.84246817  0.63093110  0.94913782     0.11600
H1079       H  0.83960910  0.64598518  0.85269978     0.08200
H1080       H  0.78355033  0.64515668  0.85424899     0.11000
C1081       C  0.34477102  0.64044501  0.90697867    -0.03600
C1082       C  0.33006969  0.63749874  0.93580182    -0.06200
C1083       C  0.29811315  0.63642288  0.93753175    -0.21300
C1084       C  0.28022595  0.63805405  0.91049225     0.24400
C1085       C  0.29476209  0.64160485  0.88189530    -0.18900
C1086       C  0.32670276  0.64272580  0.88015089    -0.08800
C1087       C  0.24653350  0.63597216  0.91284654    -0.19100
C1088       C  0.22968118  0.63029213  0.88849998    -0.23900
C1089       C  0.19595654  0.62830086  0.88975787     0.26500
C1090       C  0.17960543  0.62898544  0.86152361    -0.20700
C1091       C  0.14776778  0.62741267  0.86133934    -0.10300
C1092       C  0.13154303  0.62488353  0.88942396    -0.10900
C1093       C  0.14798628  0.62370718  0.91766483    -0.03800
C1094       C  0.17994828  0.62543441  0.91787353    -0.18900
H1095       H  0.34325147  0.63574793  0.95699148     0.10200
H1096       H  0.28738206  0.63387910  0.95988121     0.10200
H1097       H  0.28159085  0.64357661  0.86081617     0.09900
H1098       H  0.33722180  0.64512370  0.85764342     0.11000
H1099       H  0.23567595  0.63879787  0.93538867     0.11100
H1100       H  0.24083549  0.62732810  0.86616360     0.13000
H1101       H  0.19148067  0.63102296  0.83954625     0.09500
H1102       H  0.13584803  0.62826972  0.83912330     0.11600
H1103       H  0.13613671  0.62173342  0.93966017     0.08200
H1104       H  0.19195995  0.62434373  0.93994385     0.11000
C1105       C  0.50724504  0.45483875  0.01912090    -0.03600
C1106       C  0.48727323  0.45723182  0.99374450    -0.06200
C1107       C  0.48449619  0.47249066  0.98052010    -0.21300
C1108       C  0.50171595  0.48575235  0.99207806     0.24400
C1109       C  0.52105415  0.48345544  0.01806030    -0.18900
C1110       C  0.52381267  0.46823324  0.03127230    -0.08800
C1111       C  0.49842838  0.50168690  0.97662362    -0.19100
C1112       C  0.51845515  0.51410188  0.98022037    -0.23900
C1113       C  0.51566921  0.52997327  0.96449028     0.26500
C1114       C  0.53375233  0.54301903  0.97554627    -0.20700
C1115       C  0.53228326  0.55810410  0.96150315    -0.10300
C1116       C  0.51269964  0.56053615  0.93587166    -0.10900
C1117       C  0.49489240  0.54742485  0.92450249    -0.03800
C1118       C  0.49640117  0.53235432  0.93849167    -0.18900
H1119       H  0.47408514  0.44726445  0.98376126     0.10200
H1120       H  0.46913751  0.47387020  0.96078154     0.10200
H1121       H  0.53402058  0.49331661  0.02859996     0.09900
H1122       H  0.53929152  0.46696125  0.05093438     0.11000
H1123       H  0.47878480  0.50297238  0.96131724     0.11100
H1124       H  0.53813322  0.51277038  0.99545502     0.13000
H1125       H  0.54895657  0.54157892  0.99538808     0.09500
H1126       H  0.54616339  0.56791611  0.97104858     0.11600
H1127       H  0.47960676  0.54878564  0.90470351     0.08200
H1128       H  0.48266162  0.52265778  0.92845600     0.11000
C1129       C  0.89567414  0.38957987  0.04515261    -0.03600
C1130       C  0.87905096  0.39067679  0.01701365    -0.06200
C1131       C  0.84689524  0.38997089  0.01726573    -0.21300
C1132       C  0.83061963  0.38803317  0.04553404     0.24400
C1133       C  0.84719535  0.38759637  0.07383794    -0.18900
C1134       C  0.87926709  0.38829161  0.07360181    -0.08800
C1135       C  0.79650496  0.38667372  0.04445812    -0.19100
C1136       C  0.77938312  0.37992802  0.06714613    -0.23900
C1137       C  0.74531851  0.37842645  0.06564198     0.26500
C1138       C  0.72853052  0.37704388  0.09375108    -0.20700
C1139       C  0.69640281  0.37599401  0.09333931    -0.10300
C1140       C  0.68036811  0.37622751  0.06470286    -0.10900
C1141       C  0.69730534  0.37703217  0.03651192    -0.03800
C1142       C  0.72933568  0.37802829  0.03693110    -0.18900
H1143       H  0.89087363  0.39167127  0.99469357     0.10200
H1144       H  0.83470559  0.39055524  0.99515017     0.10200
H1145       H  0.83565181  0.38677932  0.09629545     0.09900
H1146       H  0.89122473  0.38760088  0.09582583     0.11000
H1147       H  0.78531695  0.39117604  0.02371283     0.11100
H1148       H  0.79042208  0.37547251  0.08800312     0.13000
H1149       H  0.74028596  0.37708824  0.11617876     0.09500
H1150       H  0.68412222  0.37533928  0.11547133     0.11600
H1151       H  0.68578904  0.37692884  0.01395804     0.08200
H1152       H  0.74136975  0.37833567  0.01465471     0.11000
C1153       C  0.39362851  0.39297468  0.06280540    -0.03600
C1154       C  0.37513345  0.38535677  0.08517460    -0.06200
C1155       C  0.34310538  0.38497312  0.08203918    -0.21300
C1156       C  0.32871423  0.39217632  0.05635820     0.24400
C1157       C  0.34702560  0.40038982  0.03481740    -0.18900
C1158       C  0.37908193  0.40065137  0.03777493    -0.08800
C1159       C  0.29487652  0.39123339  0.05108056    -0.19100
C1160       C  0.27746583  0.37890423  0.06100747    -0.23900
C1161       C  0.24386669  0.37730065  0.05509349     0.26500
C1162       C  0.22633266  0.36804570  0.07561275    -0.20700
C1163       C  0.19473999  0.36610183  0.07113855    -0.10300
C1164       C  0.17987548  0.37313340  0.04559429    -0.10900
C1165       C  0.19755601  0.38203181  0.02445339    -0.03800
C1166       C  0.22919439  0.38414819  0.02918160    -0.18900
H1167       H  0.38543329  0.37939420  0.10486834     0.10200
H1168       H  0.32977519  0.37903970  0.09982157     0.10200
H1169       H  0.33655025  0.40623466  0.01506741     0.09900
H1170       H  0.39248925  0.40673410  0.02021508     0.11000
H1171       H  0.28440695  0.40064893  0.03748397     0.11100
H1172       H  0.28809981  0.36946608  0.07440654     0.13000
H1173       H  0.23707715  0.36245473  0.09550397     0.09500
H1174       H  0.18194795  0.35906847  0.08777551     0.11600
H1175       H  0.18686526  0.38757373  0.00449384     0.08200
H1176       H  0.24206050  0.39093870  0.01226957     0.11000
C1177       C  0.01035925  0.44913168  0.99869031    -0.03600
C1178       C  0.99238390  0.45194771  0.97198404    -0.06200
C1179       C  0.99054578  0.46746437  0.95965385    -0.21300
C1180       C  0.00672413  0.48055739  0.97350450     0.24400
C1181       C  0.02389569  0.47780469  0.00084871    -0.18900
C1182       C  0.02575769  0.46234429  0.01310913    -0.08800
C1183       C  0.00481542  0.49677655  0.95883874    -0.19100
C1184       C  0.02389234  0.50929899  0.96575363    -0.23900
C1185       C  0.02234633  0.52552540  0.95119040     0.26500
C1186       C  0.03833398  0.53850859  0.96563949    -0.20700
C1187       C  0.03715962  0.55404203  0.95341925    -0.10300
C1188       C  0.01997200  0.55701693  0.92626808    -0.10900
C1189       C  0.00489407  0.54389372  0.91111897    -0.03800
C1190       C  0.00608941  0.52837307  0.92331903    -0.18900
H1191       H  0.98017505  0.44211638  0.96023622     0.10200
H1192       H  0.97681383  0.46917788  0.93881166     0.10200
H1193       H  0.03593689  0.48745995  0.01317126     0.09900
H1194       H  0.03967290  0.46075141  0.03385974     0.11000
H1195       H  0.98704272  0.49822726  0.94136032     0.11100
H1196       H  0.04166054  0.50785944  0.98320769     0.13000
H1197       H  0.05136998  0.53670118  0.98691201     0.09500
H1198       H  0.04904299  0.56379894  0.96576677     0.11600
H1199       H  0.99166631  0.54563941  0.88995476     0.08200
H1200       H  0.99427711  0.51873745  0.91066129     0.11000
C1201       C  0.50078606  0.62027316  0.03562111    -0.03600
C1202       C  0.47690977  0.62506925  0.05619652    -0.06200
C1203       C  0.48222586  0.62706688  0.08842452    -0.21300
C1204       C  0.51150983  0.62445144  0.10096972     0.24400
C1205       C  0.53531616  0.61914334  0.08069448    -0.18900
C1206       C  0.52996293  0.61704656  0.04831192    -0.08800
C1207       C  0.51548550  0.62687850  0.13545369    -0.19100
C1208       C  0.54220730  0.63064572  0.14988140    -0.23900
C1209       C  0.54402549  0.63311118  0.18471989     0.26500
C1210       C  0.57130391  0.62942870  0.20059767    -0.20700
C1211       C  0.57225226  0.62997800  0.23364528    -0.10300
C1212       C  0.54588217  0.63424752  0.25128646    -0.10900
C1213       C  0.51932266  0.63894351  0.23529816    -0.03800
C1214       C  0.51851672  0.63860748  0.20248861    -0.18900
H1215       H  0.45421561  0.62772802  0.04735114     0.10200
H1216       H  0.46343068  0.63101425  0.10360348     0.10200
H1217       H  0.55793386  0.61652290  0.08971421     0.09900
H1218       H  0.54884750  0.61321700  0.03316139     0.11000
H1219       H  0.49479616  0.62577848  0.14953029     0.11100
H1220       H  0.56324904  0.63142498  0.13623008     0.13000
H1221       H  0.59147282  0.62546319  0.18746999     0.09500
H1222       H  0.59310175  0.62634849  0.24535009     0.11600
H1223       H  0.49886642  0.64264570  0.24822784     0.08200
H1224       H  0.49762479  0.64244903  0.19120226     0.11000
C1225       C  0.52748896  0.61961529  0.53940282    -0.03600
C1226       C  0.50542571  0.60997378  0.55397716    -0.06200
C1227       C  0.49665240  0.61317726  0.58517649    -0.21300
C1228       C  0.50918792  0.62629187  0.60236218     0.24400
C1229       C  0.53191641  0.63574123  0.58805933    -0.18900
C1230       C  0.54105257  0.63237222  0.55686984    -0.08800
C1231       C  0.49853585  0.62928412  0.63532429    -0.19100
C1232       C  0.50051585  0.64367883  0.65081788    -0.23900
C1233       C  0.49182173  0.64589795  0.68449599     0.26500
C1234       C  0.50902137  0.65662090  0.70349275    -0.20700
C1235       C  0.50412011  0.65759900  0.73598402    -0.10300
C1236       C  0.48129084  0.64820976  0.75001690    -0.10900
C1237       C  0.46245361  0.63838645  0.73079885    -0.03800
C1238       C  0.46776766  0.63715921  0.69825365    -0.18900
H1239       H  0.49470196  0.60000924  0.54109141     0.10200
H1240       H  0.47948238  0.60556653  0.59573219     0.10200
H1241       H  0.54288170  0.64563630  0.60082423     0.09900
H1242       H  0.55801585  0.64003084  0.54611991     0.11000
H1243       H  0.48858031  0.61911371  0.64723962     0.11100
H1244       H  0.51068447  0.65391317  0.63935448     0.13000
H1245       H  0.52746070  0.66357879  0.69341920     0.09500
H1246       H  0.51911439  0.66515990  0.75040389     0.11600
H1247       H  0.44502135  0.63087234  0.74116303     0.08200
H1248       H  0.45352700  0.62911360  0.68406132     0.11000
C1249       C  0.68448108  0.61914824  0.39531894    -0.03600
C1250       C  0.69802619  0.60643214  0.41150234    -0.06200
C1251       C  0.72967991  0.60365542  0.40949433    -0.21300
C1252       C  0.74856584  0.61380342  0.39206546     0.24400
C1253       C  0.73505263  0.62652266  0.37576856    -0.18900
C1254       C  0.70323834  0.62905850  0.37713633    -0.08800
C1255       C  0.78216570  0.61067753  0.39108131    -0.19100
C1256       C  0.80301865  0.62264679  0.39077254    -0.23900
C1257       C  0.83657350  0.61966863  0.39314925     0.26500
C1258       C  0.85474195  0.63099513  0.40969902    -0.20700
C1259       C  0.88633028  0.62852261  0.41288067    -0.10300
C1260       C  0.90062377  0.61487022  0.39878431    -0.10900
C1261       C  0.88257267  0.60367878  0.38155236    -0.03800
C1262       C  0.85077142  0.60597359  0.37898922    -0.18900
H1263       H  0.68405009  0.59848922  0.42538257     0.10200
H1264       H  0.73954065  0.59371159  0.42203829     0.10200
H1265       H  0.74896739  0.63435084  0.36161386     0.09900
H1266       H  0.69333875  0.63890414  0.36434920     0.11000
H1267       H  0.78990834  0.59830127  0.39357841     0.11100
H1268       H  0.79517681  0.63512219  0.39169542     0.13000
H1269       H  0.84437129  0.64169585  0.42058351     0.09500
H1270       H  0.89969822  0.63747430  0.42591784     0.11600
H1271       H  0.89301518  0.59310619  0.37027015     0.08200
H1272       H  0.83743263  0.59719736  0.36550088     0.11000
C1273       C  0.39947961  0.61199017  0.38866730    -0.03600
C1274       C  0.38291587  0.60186635  0.40854224    -0.06200
C1275       C  0.35071275  0.60225596  0.40909559    -0.21300
C1276       C  0.33447954  0.61312450  0.39059767     0.24400
C1277       C  0.35101767  0.62327473  0.37079194    -0.18900
C1278       C  0.38313094  0.62260843  0.36964157    -0.08800
C1279       C  0.30033136  0.61313301  0.39106302    -0.19100
C1280       C  0.28351620  0.62671872  0.38860111    -0.23900
C1281       C  0.24941410  0.62658034  0.38803665     0.26500
C1282       C  0.23285218  0.63879424  0.40431768    -0.20700
C1283       C  0.20065054  0.63889076  0.40391902    -0.10300
C1284       C  0.18442554  0.62707141  0.38629448    -0.10900
C1285       C  0.20114277  0.61512253  0.36925687    -0.03800
C1286       C  0.23326755  0.61478107  0.37037098    -0.18900
H1287       H  0.39485894  0.59354890  0.42343606     0.10200
H1288       H  0.33844304  0.59420373  0.42431165     0.10200
H1289       H  0.33911981  0.63152312  0.35573439     0.09900
H1290       H  0.39521677  0.63062573  0.35421410     0.11000
H1291       H  0.28871274  0.60172857  0.39466904     0.11100
H1292       H  0.29499069  0.63835537  0.38833807     0.13000
H1293       H  0.24486488  0.64809835  0.41784320     0.09500
H1294       H  0.18844110  0.64823985  0.41729283     0.11600
H1295       H  0.18934717  0.60578425  0.35562017     0.08200
H1296       H  0.24550904  0.60541792  0.35707389     0.11000
C1297       C  0.99605851  0.60939961  0.03451414    -0.03600
C1298       C  0.02526873  0.60423413  0.04429162    -0.06200
C1299       C  0.03166875  0.60190773  0.07594562    -0.21300
C1300       C  0.00918497  0.60447476  0.09925351     0.24400
C1301       C  0.97948374  0.60920213  0.08974655    -0.18900
C1302       C  0.97301650  0.61164105  0.05765399    -0.08800
C1303       C  0.01895356  0.60279824  0.13282403    -0.19100
C1304       C  0.00000657  0.60129837  0.15779786    -0.23900
C1305       C  0.01103400  0.59944476  0.19103966     0.26500
C1306       C  0.99028230  0.59390361  0.21364409    -0.20700
C1307       C  0.99887493  0.59267269  0.24525993    -0.10300
C1308       C  0.02854612  0.59710230  0.25554253    -0.10900
C1309       C  0.04962085  0.60235243  0.23283953    -0.03800
C1310       C  0.04102123  0.60355002  0.20109123    -0.18900
H1311       H  0.04372855  0.60221075  0.02748673     0.10200
H1312       H  0.05467889  0.59823429  0.08228032     0.10200
H1313       H  0.96150202  0.61149121  0.10694319     0.09900
H1314       H  0.95028360  0.61562549  0.05108404     0.11000
H1315       H  0.04350874  0.60214666  0.13670165     0.11100
H1316       H  0.97541305  0.60082763  0.15381721     0.13000
H1317       H  0.96705248  0.59069378  0.20690698     0.09500
H1318       H  0.98177376  0.58869177  0.26185447     0.11600
H1319       H  0.07248419  0.60612171  0.23977540     0.08200
H1320       H  0.05774255  0.60825907  0.18494058     0.11000
C1321       C  0.04217624  0.64652783  0.53616489    -0.03600
C1322       C  0.06681506  0.64456062  0.55689876    -0.06200
C1323       C  0.06270837  0.64740650  0.58945830    -0.21300
C1324       C  0.03404278  0.65241761  0.60203915     0.24400
C1325       C  0.00997413  0.65525093  0.58088814    -0.18900
C1326       C  0.01403248  0.65232256  0.54853878    -0.08800
C1327       C  0.03015389  0.65375804  0.63716418    -0.19100
C1328       C  0.00397888  0.65823196  0.65265414    -0.23900
C1329       C  0.00042892  0.65802347  0.68775842     0.26500
C1330       C  0.97088013  0.65678425  0.70120877    -0.20700
C1331       C  0.96700974  0.65499235  0.73383589    -0.10300
C1332       C  0.99268718  0.65448221  0.75371005    -0.10900
C1333       C  0.02199385  0.65694669  0.74043033    -0.03800
C1334       C  0.02581916  0.65874636  0.70806620    -0.18900
H1335       H  0.08870468  0.64002389  0.54819787     0.10200
H1336       H  0.08182166  0.64519616  0.60500499     0.10200
H1337       H  0.98759600  0.65925593  0.58891370     0.09900
H1338       H  0.99460875  0.65411157  0.53315501     0.11000
H1339       H  0.04979138  0.65006085  0.65082141     0.11100
H1340       H  0.98365972  0.66130979  0.63950646     0.13000
H1341       H  0.95077513  0.65654180  0.68626683     0.09500
H1342       H  0.94413612  0.65325395  0.74322649     0.11600
H1343       H  0.04233990  0.65705698  0.75503439     0.08200
H1344       H  0.04882500  0.66052798  0.69917660     0.11000
C1345       C  0.96797879  0.37771929  0.39212977    -0.03600
C1346       C  0.98994004  0.38821429  0.37966237    -0.06200
C1347       C  0.99802277  0.38709259  0.34787995    -0.21300
C1348       C  0.98480427  0.37528777  0.32788098     0.24400
C1349       C  0.96132554  0.36545723  0.33974783    -0.18900
C1350       C  0.95285111  0.36674818  0.37164119    -0.08800
C1351       C  0.99658556  0.37363618  0.29508374    -0.19100
C1352       C  0.99678579  0.35964353  0.27802754    -0.23900
C1353       C  0.00960286  0.35844021  0.24555467     0.26500
C1354       C  0.99578102  0.34789227  0.22341618    -0.20700
C1355       C  0.00451231  0.34807370  0.19174182    -0.10300
C1356       C  0.02792291  0.35842505  0.18182179    -0.10900
C1357       C  0.04364413  0.36795042  0.20432022    -0.03800
C1358       C  0.03451676  0.36799894  0.23597788    -0.18900
H1359       H  0.00177373  0.39692218  0.39480475     0.10200
H1360       H  0.01573597  0.39500340  0.33920795     0.10200
H1361       H  0.94985970  0.35662062  0.32465136     0.09900
H1362       H  0.93577840  0.35856089  0.38060522     0.11000
H1363       H  0.00688277  0.38429824  0.28521448     0.11100
H1364       H  0.98624593  0.34893935  0.28744749     0.13000
H1365       H  0.97692695  0.34022327  0.23028178     0.09500
H1366       H  0.99196700  0.34069920  0.17467023     0.11600
H1367       H  0.06152599  0.37614664  0.19711278     0.08200
H1368       H  0.04643167  0.37583537  0.25271361     0.11000
C1369       C  0.02872780  0.38015998  0.89512050    -0.03600
C1370       C  0.01001934  0.39151782  0.88043087    -0.06200
C1371       C  0.00089499  0.38910756  0.84910506    -0.21300
C1372       C  0.00969348  0.37514070  0.83166708     0.24400
C1373       C  0.02947233  0.36402964  0.84607091    -0.18900
C1374       C  0.03898077  0.36658750  0.87740862    -0.08800
C1375       C  0.99731943  0.37283945  0.79893454    -0.19100
C1376       C  0.00105342  0.35940454  0.78043134    -0.23900
C1377       C  0.98951458  0.35786697  0.74739426     0.26500
C1378       C  0.00556048  0.34776508  0.72587346    -0.20700
C1379       C  0.99746171  0.34704855  0.69405720    -0.10300
C1380       C  0.97255167  0.35607776  0.68306556    -0.10900
C1381       C  0.95502893  0.36531769  0.70481741    -0.03800
C1382       C  0.96348435  0.36626688  0.73673160    -0.18900
H1383       H  0.00183854  0.40213774  0.89347673     0.10200
H1384       H  0.98609725  0.39802017  0.83873945     0.10200
H1385       H  0.03745355  0.35323500  0.83366935     0.09900
H1386       H  0.05320437  0.35757729  0.88823888     0.11000
H1387       H  0.98456723  0.38289331  0.78960347     0.11100
H1388       H  0.01453767  0.34940279  0.78873046     0.13000
H1389       H  0.02540238  0.34099548  0.73340565     0.09500
H1390       H  0.01150739  0.33993622  0.67768393     0.11600
H1391       H  0.93599087  0.37255038  0.69683733     0.08200
H1392       H  0.94993001  0.37377443  0.75280683     0.11000
C1393       C  0.98973597  0.43652005  0.47584187    -0.03600
C1394       C  0.00776926  0.43726632  0.44843901    -0.06200
C1395       C  0.01029150  0.45172620  0.43230446    -0.21300
C1396       C  0.99482044  0.46581547  0.44296728     0.24400
C1397       C  0.97662653  0.46504787  0.47034480    -0.18900
C1398       C  0.97404021  0.45058892  0.48642853    -0.08800
C1399       C  0.00002719  0.48117019  0.42602616    -0.19100
C1400       C  0.98243519  0.49462769  0.42940022    -0.23900
C1401       C  0.98970382  0.51043580  0.41473790     0.26500
C1402       C  0.96716873  0.52268700  0.41490640    -0.20700
C1403       C  0.97414556  0.53829787  0.40492398    -0.10300
C1404       C  0.00398518  0.54206772  0.39495425    -0.10900
C1405       C  0.02616180  0.52969396  0.39351896    -0.03800
C1406       C  0.01917043  0.51409192  0.40312876    -0.18900
H1407       H  0.01990468  0.42666746  0.43937339     0.10200
H1408       H  0.02458997  0.45192054  0.41140351     0.10200
H1409       H  0.96490226  0.47561303  0.47999672     0.09900
H1410       H  0.95993666  0.45051498  0.50747688     0.11000
H1411       H  0.01929847  0.48116652  0.40981726     0.11100
H1412       H  0.96175996  0.49423287  0.44366825     0.13000
H1413       H  0.94435571  0.52034668  0.42393170     0.09500
H1414       H  0.95684120  0.54768918  0.40711741     0.11600
H1415       H  0.04952284  0.53234564  0.38649962     0.08200
H1416       H  0.03757437  0.50532171  0.40306108     0.11000
C1417       C  0.82222273  0.36056092  0.53837620    -0.03600
C1418       C  0.80514646  0.36366056  0.51116500    -0.06200
C1419       C  0.77331957  0.36581805  0.51285577    -0.21300
C1420       C  0.75769238  0.36506582  0.54172544     0.24400
C1421       C  0.77456736  0.36137723  0.56881143    -0.18900
C1422       C  0.80644788  0.35917844  0.56712247    -0.08800
C1423       C  0.72387418  0.36798039  0.54218478    -0.19100
C1424       C  0.70754795  0.37211201  0.56827214    -0.23900
C1425       C  0.67369838  0.37483899  0.56808350     0.26500
C1426       C  0.65685541  0.37208924  0.59558864    -0.20700
C1427       C  0.62489682  0.37387625  0.59613879    -0.10300
C1428       C  0.60888604  0.37865191  0.56921586    -0.10900
C1429       C  0.62593023  0.38207018  0.54200663    -0.03800
C1430       C  0.65796245  0.38021612  0.54144591    -0.18900
H1431       H  0.81641422  0.36479191  0.48857728     0.10200
H1432       H  0.76091894  0.36844427  0.49154949     0.10200
H1433       H  0.76340789  0.36011163  0.59135756     0.09900
H1434       H  0.81879272  0.35670512  0.58852610     0.11000
H1435       H  0.71209651  0.36687286  0.51976155     0.11100
H1436       H  0.71894058  0.37309664  0.59089595     0.13000
H1437       H  0.66839809  0.36815633  0.61656719     0.09500
H1438       H  0.61269975  0.37123408  0.61762303     0.11600
H1439       H  0.61451004  0.38598017  0.52096277     0.08200
H1440       H  0.67025910  0.38307875  0.52017262     0.11000
C1441       C  0.32154576  0.36830460  0.56048137    -0.03600
C1442       C  0.30433572  0.36573366  0.58791138    -0.06200
C1443       C  0.27233346  0.36731887  0.58779906    -0.21300
C1444       C  0.25671830  0.37158764  0.56038820     0.24400
C1445       C  0.27392144  0.37383410  0.53273101    -0.18900
C1446       C  0.30588152  0.37227764  0.53285696    -0.08800
C1447       C  0.22261816  0.37323357  0.56169298    -0.19100
C1448       C  0.20560804  0.38011347  0.53922637    -0.23900
C1449       C  0.17155015  0.38122588  0.54039636     0.26500
C1450       C  0.15537443  0.38230568  0.51200946    -0.20700
C1451       C  0.12326808  0.38277248  0.51184159    -0.10300
C1452       C  0.10663830  0.38223815  0.54017150    -0.10900
C1453       C  0.12290110  0.38190922  0.56873068    -0.03800
C1454       C  0.15498033  0.38144442  0.56887685    -0.18900
H1455       H  0.31558600  0.36267373  0.60961976     0.10200
H1456       H  0.25973965  0.36536795  0.60938270     0.10200
H1457       H  0.26310296  0.37664056  0.51074093     0.09900
H1458       H  0.31831858  0.37430602  0.51121771     0.11000
H1459       H  0.21118402  0.36846887  0.58214265     0.11100
H1460       H  0.21657742  0.38473463  0.51845961     0.13000
H1461       H  0.16762233  0.38236169  0.48977381     0.09500
H1462       H  0.11150357  0.38303616  0.48945475     0.11600
H1463       H  0.11083123  0.38174068  0.59105628     0.08200
H1464       H  0.16659157  0.38130039  0.59132271     0.11000
C1465       C  0.52943422  0.36592093  0.20614676    -0.03600
C1466       C  0.55411325  0.36922359  0.22652490    -0.06200
C1467       C  0.54964960  0.36934740  0.25924632    -0.21300
C1468       C  0.52051205  0.36620934  0.27210598     0.24400
C1469       C  0.49646884  0.36178976  0.25163606    -0.18900
C1470       C  0.50087152  0.36173436  0.21909083    -0.08800
C1471       C  0.51588263  0.36790431  0.30678043    -0.19100
C1472       C  0.48846739  0.37160178  0.32026358    -0.23900
C1473       C  0.48386345  0.37431606  0.35477430     0.26500
C1474       C  0.45422915  0.37275398  0.36759386    -0.20700
C1475       C  0.44904840  0.37516836  0.39998356    -0.10300
C1476       C  0.47341814  0.37938892  0.42023263    -0.10900
C1477       C  0.50286150  0.38145247  0.40714245    -0.03800
C1478       C  0.50802533  0.37898176  0.37490556    -0.18900
H1479       H  0.57635813  0.37251837  0.21722430     0.10200
H1480       H  0.56869158  0.37254857  0.27453369     0.10200
H1481       H  0.47409159  0.35854077  0.26055067     0.09900
H1482       H  0.48156664  0.35882702  0.20394334     0.11000
H1483       H  0.53609602  0.36670589  0.32136194     0.11100
H1484       H  0.46832625  0.37283485  0.30557021     0.13000
H1485       H  0.43509523  0.36938743  0.35255566     0.09500
H1486       H  0.42609480  0.37345348  0.40919175     0.11600
H1487       H  0.52221182  0.38479753  0.42186942     0.08200
H1488       H  0.53094638  0.38095413  0.36596325     0.11000
C1489       C  0.46508825  0.36252994  0.71130003    -0.03600
C1490       C  0.44339765  0.37060266  0.73056714    -0.06200
C1491       C  0.44902810  0.37299663  0.76284210    -0.21300
C1492       C  0.47638237  0.36739270  0.77630546     0.24400
C1493       C  0.49678801  0.35814030  0.75738985    -0.18900
C1494       C  0.49124828  0.35582530  0.72523427    -0.08800
C1495       C  0.48312095  0.37172211  0.80981930    -0.19100
C1496       C  0.51187697  0.37279392  0.82159112    -0.23900
C1497       C  0.51860961  0.37782210  0.85478147     0.26500
C1498       C  0.54618405  0.37279993  0.86857350    -0.20700
C1499       C  0.55255563  0.37669554  0.90020483    -0.10300
C1500       C  0.53149615  0.38580700  0.91861992    -0.10900
C1501       C  0.50472879  0.39157265  0.90424835    -0.03800
C1502       C  0.49840139  0.38768847  0.87273393    -0.18900
H1503       H  0.42319525  0.37598947  0.72037691     0.10200
H1504       H  0.43269052  0.37994314  0.77702783     0.10200
H1505       H  0.51737222  0.35295193  0.76709155     0.09900
H1506       H  0.50816928  0.34936057  0.71090723     0.11000
H1507       H  0.46361108  0.37473999  0.82484363     0.11100
H1508       H  0.53142362  0.36975621  0.80662481     0.13000
H1509       H  0.56242460  0.36542882  0.85509534     0.09500
H1510       H  0.57341431  0.37208763  0.91049019     0.11600
H1511       H  0.48825077  0.39887596  0.91753433     0.08200
H1512       H  0.47764282  0.39246342  0.86263147     0.11000
C1513       C  0.50285489  0.44296548  0.51680628    -0.03600
C1514       C  0.51959504  0.44420494  0.48863087    -0.06200
C1515       C  0.52300581  0.45919768  0.47451523    -0.21300
C1516       C  0.50968265  0.47327573  0.48807938     0.24400
C1517       C  0.49398861  0.47212285  0.51690975    -0.18900
C1518       C  0.49057083  0.45718637  0.53097809    -0.08800
C1519       C  0.51352008  0.48894416  0.47203723    -0.19100
C1520       C  0.49494817  0.50191537  0.47699954    -0.23900
C1521       C  0.49924498  0.51786900  0.46203312     0.26500
C1522       C  0.48345731  0.53143628  0.47470043    -0.20700
C1523       C  0.48769756  0.54678423  0.46235991    -0.10300
C1524       C  0.50776717  0.54893858  0.43684189    -0.10900
C1525       C  0.52276041  0.53526783  0.42349321    -0.03800
C1526       C  0.51849233  0.51995187  0.43577883    -0.18900
H1527       H  0.52941919  0.43354778  0.47706634     0.10200
H1528       H  0.53563780  0.45974784  0.45256273     0.10200
H1529       H  0.48448252  0.48269521  0.52895850     0.09900
H1530       H  0.47792259  0.45679006  0.55293596     0.11000
H1531       H  0.53240685  0.48957686  0.45546588     0.11100
H1532       H  0.47585267  0.50105452  0.49331802     0.13000
H1533       H  0.46820359  0.53022321  0.49468645     0.09500
H1534       H  0.47568462  0.55699502  0.47321309     0.11600
H1535       H  0.53816190  0.53638662  0.40361045     0.08200
H1536       H  0.53035413  0.50988334  0.42441141     0.11000
C1537       C  0.58697538  0.31234844  0.09526107    -0.03600
C1538       C  0.61616443  0.31101534  0.10909175    -0.06200
C1539       C  0.62948905  0.29583781  0.11364739    -0.21300
C1540       C  0.61388068  0.28153839  0.10505893     0.24400
C1541       C  0.58443173  0.28281793  0.09170037    -0.18900
C1542       C  0.57123417  0.29802748  0.08675927    -0.08800
C1543       C  0.62994882  0.26567622  0.10833832    -0.19100
C1544       C  0.61539304  0.25135642  0.11076665    -0.23900
C1545       C  0.63161999  0.23543524  0.11239936     0.26500
C1546       C  0.61635779  0.22230839  0.12565599    -0.20700
C1547       C  0.63000202  0.20692895  0.12584390    -0.10300
C1548       C  0.65915079  0.20419749  0.11226553    -0.10900
C1549       C  0.67451474  0.21737372  0.09914641    -0.03800
C1550       C  0.66101351  0.23277535  0.09926739    -0.18900
H1551       H  0.62912879  0.32173357  0.11571631     0.10200
H1552       H  0.65227330  0.29527276  0.12372684     0.10200
H1553       H  0.57190693  0.27214000  0.08404775     0.09900
H1554       H  0.54877556  0.29856417  0.07596380     0.11000
H1555       H  0.65484051  0.26596310  0.10962255     0.11100
H1556       H  0.59050833  0.25122736  0.11242111     0.13000
H1557       H  0.59360742  0.22392739  0.13569197     0.09500
H1558       H  0.61733356  0.19708086  0.13588571     0.11600
H1559       H  0.69692042  0.21575021  0.08832809     0.08200
H1560       H  0.67328177  0.24240060  0.08807516     0.11000
C1561       C  0.85347834  0.12527751  0.10240082    -0.03600
C1562       C  0.86804401  0.13769275  0.12005252    -0.06200
C1563       C  0.89965641  0.14008610  0.11753394    -0.21300
C1564       C  0.91758710  0.12993499  0.09787766     0.24400
C1565       C  0.90317227  0.11735411  0.08044563    -0.18900
C1566       C  0.87133962  0.11512790  0.08253423    -0.08800
C1567       C  0.95105520  0.13311177  0.09560918    -0.19100
C1568       C  0.97182485  0.12136131  0.08989007    -0.23900
C1569       C  0.00529842  0.12438954  0.09135820     0.26500
C1570       C  0.02397901  0.11299860  0.10565382    -0.20700
C1571       C  0.05552861  0.11550731  0.10822172    -0.10300
C1572       C  0.06931512  0.12926342  0.09570396    -0.10900
C1573       C  0.05076138  0.14050795  0.08049148    -0.03800
C1574       C  0.01886158  0.13819843  0.07870133    -0.18900
H1575       H  0.85484986  0.14591758  0.13515161     0.10200
H1576       H  0.91016220  0.14991015  0.13103206     0.10200
H1577       H  0.91625696  0.10952137  0.06452831     0.09900
H1578       H  0.86066891  0.10558413  0.06843629     0.11000
H1579       H  0.95905914  0.14527242  0.10137934     0.11100
H1580       H  0.96429012  0.10888853  0.08746232     0.13000
H1581       H  0.01403494  0.10223510  0.11534580     0.09500
H1582       H  0.06928742  0.10647161  0.11956735     0.11600
H1583       H  0.06085295  0.15111415  0.07036446     0.08200
H1584       H  0.00489726  0.14703035  0.06704502     0.11000
C1585       C  0.35494861  0.11960454  0.09772276    -0.03600
C1586       C  0.37075775  0.10928832  0.11779017    -0.06200
C1587       C  0.40288957  0.10951059  0.11907448    -0.21300
C1588       C  0.41969221  0.12030681  0.10095633     0.24400
C1589       C  0.40394583  0.13055144  0.08078753    -0.18900
C1590       C  0.37196577  0.13016367  0.07910987    -0.08800
C1591       C  0.45366610  0.12029935  0.10230643    -0.19100
C1592       C  0.47013503  0.13394556  0.09995179    -0.23900
C1593       C  0.50412359  0.13407939  0.09918607     0.26500
C1594       C  0.51984996  0.14753932  0.11183835    -0.20700
C1595       C  0.55191190  0.14819695  0.11053640    -0.10300
C1596       C  0.56868904  0.13562104  0.09563029    -0.10900
C1597       C  0.55294308  0.12229111  0.08240579    -0.03800
C1598       C  0.52094420  0.12144885  0.08440101    -0.18900
H1599       H  0.35833875  0.10093411  0.13223060     0.10200
H1600       H  0.41464370  0.10137580  0.13449561     0.10200
H1601       H  0.41636099  0.13867675  0.06585945     0.09900
H1602       H  0.36057566  0.13822969  0.06328561     0.11000
H1603       H  0.46527684  0.10891418  0.10623385     0.11100
H1604       H  0.45832227  0.14550979  0.09938985     0.13000
H1605       H  0.50729435  0.15750102  0.12294843     0.09500
H1606       H  0.56358343  0.15865549  0.12067522     0.11600
H1607       H  0.56543015  0.11244525  0.07081368     0.08200
H1608       H  0.50937474  0.11111337  0.07369995     0.11000
C1609       C  0.08535057  0.30548412  0.07045816    -0.03600
C1610       C  0.11031158  0.30373858  0.09105288    -0.06200
C1611       C  0.12310036  0.28850189  0.09607799    -0.21300
C1612       C  0.11144474  0.27456642  0.08067503     0.24400
C1613       C  0.08610211  0.27628421  0.06043606    -0.18900
C1614       C  0.07337142  0.29153235  0.05534553    -0.08800
C1615       C  0.12619919  0.25862934  0.08690612    -0.19100
C1616       C  0.12059723  0.24482268  0.07016686    -0.23900
C1617       C  0.13499752  0.22885469  0.07640785     0.26500
C1618       C  0.12107674  0.21493272  0.06338635    -0.20700
C1619       C  0.13375782  0.19965738  0.06764969    -0.10300
C1620       C  0.16094281  0.19779804  0.08503380    -0.10900
C1621       C  0.17503335  0.21171634  0.09812141    -0.03800
C1622       C  0.16230053  0.22709328  0.09376897    -0.18900
H1623       H  0.12020935  0.31417302  0.10317518     0.10200
H1624       H  0.14240774  0.28762950  0.11195478     0.10200
H1625       H  0.07560428  0.26599963  0.04856913     0.09900
H1626       H  0.05407013  0.29236483  0.03947149     0.11000
H1627       H  0.14240339  0.25841165  0.10620187     0.11100
H1628       H  0.10428789  0.24491068  0.05100560     0.13000
H1629       H  0.10016527  0.21585824  0.04979982     0.09500
H1630       H  0.12212500  0.18926758  0.05720478     0.11600
H1631       H  0.19615314  0.21075664  0.11131933     0.08200
H1632       H  0.17432362  0.23749329  0.10350458     0.11000
C1633       C  0.92978367  0.70069287  0.88050361    -0.03600
C1634       C  0.90232114  0.70262146  0.86356586    -0.06200
C1635       C  0.88596880  0.71728220  0.86529952    -0.21300
C1636       C  0.89683628  0.73054022  0.88346819     0.24400
C1637       C  0.92468445  0.72879688  0.89975637    -0.18900
C1638       C  0.94084815  0.71408313  0.89836559    -0.08800
C1639       C  0.87768836  0.74557472  0.88674452    -0.19100
C1640       C  0.88968210  0.76050909  0.89125731    -0.23900
C1641       C  0.87087299  0.77560115  0.89539736     0.26500
C1642       C  0.88313353  0.79027678  0.88550249    -0.20700
C1643       C  0.86726695  0.80487188  0.89075506    -0.10300
C1644       C  0.83879586  0.80531762  0.90667603    -0.10900
C1645       C  0.82642579  0.79057888  0.91657154    -0.03800
C1646       C  0.84217822  0.77589382  0.91086108    -0.18900
H1647       H  0.89292414  0.69264428  0.84964129     0.10200
H1648       H  0.86454278  0.71822332  0.85259953     0.10200
H1649       H  0.93348087  0.73859570  0.91455292     0.09900
H1650       H  0.96176041  0.71311714  0.91189933     0.11000
H1651       H  0.85297652  0.74431862  0.88427449     0.11100
H1652       H  0.91448141  0.76189811  0.89063764     0.13000
H1653       H  0.90525296  0.79046994  0.87375065     0.09500
H1654       H  0.87774684  0.81588973  0.88285251     0.11600
H1655       H  0.80472902  0.79039805  0.92909572     0.08200
H1656       H  0.83234186  0.76486926  0.91946895     0.11000
C1657       C  0.75159353  0.94631273  0.99951588    -0.03600
C1658       C  0.73525020  0.94906540  0.02778388    -0.06200
C1659       C  0.73096237  0.96489029  0.04004235    -0.21300
C1660       C  0.74304158  0.97824317  0.02444060     0.24400
C1661       C  0.75888984  0.97544435  0.99593260    -0.18900
C1662       C  0.76319527  0.95975262  0.98379197    -0.08800
C1663       C  0.73765555  0.99495040  0.03756360    -0.19100
C1664       C  0.75630437  0.00754602  0.03145678    -0.23900
C1665       C  0.75105473  0.02457096  0.04292127     0.26500
C1666       C  0.76741213  0.03703630  0.02861055    -0.20700
C1667       C  0.76350022  0.05321277  0.03860455    -0.10300
C1668       C  0.74321162  0.05733466  0.06338910    -0.10900
C1669       C  0.72700527  0.04482361  0.07785044    -0.03800
C1670       C  0.73088600  0.02868436  0.06784655    -0.18900
H1671       H  0.72613554  0.93901922  0.04057605     0.10200
H1672       H  0.71839614  0.96670713  0.06192138     0.10200
H1673       H  0.76751852  0.98533359  0.98243525     0.09900
H1674       H  0.77557441  0.95819303  0.96174570     0.11000
H1675       H  0.71768270  0.99672777  0.05257233     0.11100
H1676       H  0.77653326  0.00543599  0.01690538     0.13000
H1677       H  0.78317061  0.03425968  0.00939289     0.09500
H1678       H  0.77621212  0.06248200  0.02675018     0.11600
H1679       H  0.71114274  0.04747133  0.09702281     0.08200
H1680       H  0.71830545  0.01955991  0.08012510     0.11000
C1681       C  0.42522787  0.86632109  0.96861224    -0.03600
C1682       C  0.44073272  0.87187403  0.99585229    -0.06200
C1683       C  0.47270797  0.87377822  0.99575428    -0.21300
C1684       C  0.49014435  0.87026201  0.96847691     0.24400
C1685       C  0.47474138  0.86428803  0.94142699    -0.18900
C1686       C  0.44273252  0.86243632  0.94148828    -0.08800
C1687       C  0.52417045  0.87279499  0.96961860    -0.19100
C1688       C  0.54234171  0.87388602  0.94387803    -0.23900
C1689       C  0.57633182  0.87669067  0.94448208     0.26500
C1690       C  0.59250862  0.87589692  0.91576092    -0.20700
C1691       C  0.62438048  0.87805466  0.91476424    -0.10300
C1692       C  0.64107634  0.88111841  0.94255146    -0.10900
C1693       C  0.62486384  0.88238837  0.97125818    -0.03800
C1694       C  0.59296314  0.88019748  0.97227198    -0.18900
H1695       H  0.42811561  0.87508825  0.01715753     0.10200
H1696       H  0.48383009  0.87827944  0.01703190     0.10200
H1697       H  0.48712094  0.86089084  0.92014708     0.09900
H1698       H  0.43167297  0.85805213  0.92010479     0.11000
H1699       H  0.53413013  0.87420526  0.99284152     0.11100
H1700       H  0.53197278  0.87280667  0.92076887     0.13000
H1701       H  0.58046719  0.87337932  0.89389587     0.09500
H1702       H  0.63597028  0.87708904  0.89218722     0.11600
H1703       H  0.63687499  0.88481147  0.99316138     0.08200
H1704       H  0.58178952  0.88126874  0.99495833     0.11000
C1705       C  0.92469765  0.86287026  0.95545782    -0.03600
C1706       C  0.93872090  0.86209615  0.98517068    -0.06200
C1707       C  0.97060879  0.86289693  0.98806872    -0.21300
C1708       C  0.98920380  0.86479388  0.96148518     0.24400
C1709       C  0.97540474  0.86506944  0.93159900    -0.18900
C1710       C  0.94344029  0.86408314  0.92862054    -0.08800
C1711       C  0.02287644  0.86627681  0.96579577    -0.19100
C1712       C  0.04057244  0.87539454  0.94735745    -0.23900
C1713       C  0.07440113  0.87694310  0.95096351     0.26500
C1714       C  0.09180829  0.88128342  0.92472705    -0.20700
C1715       C  0.12378696  0.88227500  0.92647101    -0.10300
C1716       C  0.13912654  0.87927327  0.95476231    -0.10900
C1717       C  0.12165313  0.87550608  0.98142719    -0.03800
C1718       C  0.08961164  0.87432054  0.97957417    -0.18900
H1719       H  0.92502510  0.86110535  0.00635174     0.10200
H1720       H  0.98074813  0.86247623  0.01127715     0.10200
H1721       H  0.98923011  0.86600783  0.91051709     0.09900
H1722       H  0.93339839  0.86469343  0.90540680     0.11000
H1723       H  0.03295786  0.86002899  0.98531074     0.11100
H1724       H  0.03002307  0.88167816  0.92809564     0.13000
H1725       H  0.08066186  0.88358799  0.90255137     0.09500
H1726       H  0.13653287  0.88539130  0.90558707     0.11600
H1727       H  0.13278521  0.87319688  0.00359317     0.08200
H1728       H  0.07697022  0.87148734  0.00063980     0.11000
C1729       C  0.43048605  0.70250122  0.87493900    -0.03600
C1730       C  0.40071651  0.70370321  0.86238173    -0.06200
C1731       C  0.38441792  0.71832630  0.86456685    -0.21300
C1732       C  0.39753357  0.73217618  0.87894655     0.24400
C1733       C  0.42774567  0.73110085  0.89051012    -0.18900
C1734       C  0.44396922  0.71647974  0.88846413    -0.08800
C1735       C  0.37837175  0.74710468  0.88347816    -0.19100
C1736       C  0.39024990  0.76197210  0.88901646    -0.23900
C1737       C  0.37154674  0.77687327  0.89532620     0.26500
C1738       C  0.38483049  0.79192630  0.88948064    -0.20700
C1739       C  0.36920538  0.80634261  0.89698284    -0.10300
C1740       C  0.33991893  0.80615102  0.91107947    -0.10900
C1741       C  0.32645026  0.79103644  0.91681222    -0.03800
C1742       C  0.34201123  0.77656393  0.90894649    -0.18900
H1743       H  0.38948580  0.69318613  0.85194764     0.10200
H1744       H  0.36119566  0.71872889  0.85554603     0.10200
H1745       H  0.43861107  0.74128528  0.90242842     0.09900
H1746       H  0.46680634  0.71602333  0.89842320     0.11000
H1747       H  0.35362953  0.74577038  0.88167312     0.11100
H1748       H  0.41495412  0.76356072  0.88798303     0.13000
H1749       H  0.40762614  0.79255147  0.87927684     0.09500
H1750       H  0.38048478  0.81767759  0.89239429     0.11600
H1751       H  0.30401411  0.79037620  0.92778309     0.08200
H1752       H  0.33127957  0.76522498  0.91453550     0.11000
C1753       C  0.24932534  0.94131969  0.03274237    -0.03600
C1754       C  0.22737669  0.94301291  0.05706216    -0.06200
C1755       C  0.22395752  0.95781713  0.07416541    -0.21300
C1756       C  0.24261597  0.97126374  0.06780303     0.24400
C1757       C  0.26446330  0.96953575  0.04347840    -0.18900
C1758       C  0.26772657  0.95487965  0.02633912    -0.08800
C1759       C  0.23710162  0.98722638  0.08492009    -0.19100
C1760       C  0.25813393  0.99932274  0.08729131    -0.23900
C1761       C  0.25155528  0.01625468  0.09956056     0.26500
C1762       C  0.27620612  0.02681626  0.10660570    -0.20700
C1763       C  0.27127570  0.04348212  0.11252143    -0.10300
C1764       C  0.24154523  0.05001820  0.11103421    -0.10900
C1765       C  0.21675624  0.03928127  0.10630067    -0.03800
C1766       C  0.22161403  0.02268590  0.10069318    -0.18900
H1767       H  0.21277179  0.93294468  0.06280755     0.10200
H1768       H  0.20659466  0.95877548  0.09245478     0.10200
H1769       H  0.27863602  0.97960889  0.03690350     0.09900
H1770       H  0.28486238  0.95425476  0.00780432     0.11000
H1771       H  0.21466013  0.98900823  0.09565425     0.11100
H1772       H  0.28135250  0.99695534  0.07896282     0.13000
H1773       H  0.29956983  0.02229341  0.10598441     0.09500
H1774       H  0.29087378  0.05138135  0.11583179     0.11600
H1775       H  0.19350066  0.04390175  0.10504124     0.08200
H1776       H  0.20190390  0.01522053  0.09515389     0.11000
C1777       C  0.81267642  0.19610163  0.57913849    -0.03600
C1778       C  0.83370117  0.19875291  0.55456243    -0.06200
C1779       C  0.84758534  0.21383503  0.55110262    -0.21300
C1780       C  0.84129386  0.22684866  0.57216204     0.24400
C1781       C  0.81981340  0.22438842  0.59654680    -0.18900
C1782       C  0.80569488  0.20920925  0.59994216    -0.08800
C1783       C  0.85772332  0.24254361  0.56719664    -0.19100
C1784       C  0.85878302  0.25524277  0.58803941    -0.23900
C1785       C  0.87616648  0.27057201  0.58245063     0.26500
C1786       C  0.86757911  0.28482048  0.59914705    -0.20700
C1787       C  0.88304539  0.29944753  0.59458152    -0.10300
C1788       C  0.90790353  0.30023961  0.57337448    -0.10900
C1789       C  0.91704332  0.28586914  0.55726857    -0.03800
C1790       C  0.90148028  0.27126126  0.56174058    -0.18900
H1791       H  0.83963594  0.18910798  0.53782494     0.10200
H1792       H  0.86372029  0.21526380  0.53191844     0.10200
H1793       H  0.81362544  0.23408307  0.61298380     0.09900
H1794       H  0.78948413  0.20771838  0.61901501     0.11000
H1795       H  0.86996680  0.24348881  0.54504816     0.11100
H1796       H  0.84609441  0.25467826  0.60996610     0.13000
H1797       H  0.84847056  0.28469424  0.61553894     0.09500
H1798       H  0.87528865  0.31017805  0.60752194     0.11600
H1799       H  0.93622214  0.28588863  0.54096728     0.08200
H1800       H  0.90969855  0.26053321  0.54918976     0.11000
C1801       C  0.71250877  0.15637511  0.23825712    -0.03600
C1802       C  0.68646044  0.15537994  0.25770630    -0.06200
C1803       C  0.68920123  0.15745990  0.29053172    -0.21300
C1804       C  0.71794603  0.16060710  0.30457111     0.24400
C1805       C  0.74354089  0.16261287  0.28478198    -0.18900
C1806       C  0.74086876  0.16037995  0.25221095    -0.08800
C1807       C  0.72038069  0.16135824  0.33970780    -0.19100
C1808       C  0.74720136  0.15997055  0.35549597    -0.23900
C1809       C  0.74991485  0.15905399  0.39045569     0.26500
C1810       C  0.77791323  0.15382003  0.40319284    -0.20700
C1811       C  0.78086684  0.15138455  0.43553066    -0.10300
C1812       C  0.75577211  0.15407151  0.45586316    -0.10900
C1813       C  0.72833813  0.16018682  0.44346166    -0.03800
C1814       C  0.72547782  0.16278163  0.41123739    -0.18900
H1815       H  0.66429198  0.15232069  0.24772063     0.10200
H1816       H  0.66894147  0.15609082  0.30507841     0.10200
H1817       H  0.76585656  0.16578195  0.29408883     0.09900
H1818       H  0.76133382  0.16154435  0.23788422     0.11000
H1819       H  0.69893233  0.16196313  0.35269853     0.11100
H1820       H  0.76836095  0.15825299  0.34231632     0.13000
H1821       H  0.79730825  0.15103893  0.38790547     0.09500
H1822       H  0.80224732  0.14659704  0.44432644     0.11600
H1823       H  0.70869332  0.16257778  0.45863818     0.08200
H1824       H  0.70388557  0.16743266  0.40291777     0.11000
C1825       C  0.74732177  0.10783658  0.73026549    -0.03600
C1826       C  0.71865281  0.10292855  0.74199676    -0.06200
C1827       C  0.71222698  0.10387826  0.77425270    -0.21300
C1828       C  0.73414072  0.10977142  0.79583762     0.24400
C1829       C  0.76330459  0.11417565  0.78421487    -0.18900
C1830       C  0.76975465  0.11319385  0.75185089    -0.08800
C1831       C  0.72518613  0.11108737  0.82988318    -0.19100
C1832       C  0.74369409  0.11662640  0.85314264    -0.23900
C1833       C  0.73517621  0.11683293  0.88712492     0.26500
C1834       C  0.75892402  0.11577610  0.90908484    -0.20700
C1835       C  0.75264779  0.11600961  0.94127769    -0.10300
C1836       C  0.72233643  0.11758881  0.95266505    -0.10900
C1837       C  0.69836678  0.11882383  0.93069964    -0.03800
C1838       C  0.70469810  0.11841206  0.89819580    -0.18900
H1839       H  0.70078798  0.09864603  0.72618482     0.10200
H1840       H  0.68971888  0.10022633  0.78231191     0.10200
H1841       H  0.78126666  0.11861834  0.79959038     0.09900
H1842       H  0.79206398  0.11708559  0.74368650     0.11000
H1843       H  0.70240870  0.10688204  0.83607783     0.11100
H1844       H  0.76692012  0.12030245  0.84778483     0.13000
H1845       H  0.78257965  0.11465013  0.90127734     0.09500
H1846       H  0.77183850  0.11514971  0.95726018     0.11600
H1847       H  0.67480331  0.12020944  0.93860309     0.08200
H1848       H  0.68583600  0.11966913  0.88194141     0.11000
C1849       C  0.61379257  0.12045572  0.58808874    -0.03600
C1850       C  0.59811992  0.11512418  0.61486135    -0.06200
C1851       C  0.56644658  0.11764192  0.61836549    -0.21300
C1852       C  0.54958659  0.12563628  0.59539628     0.24400
C1853       C  0.56501262  0.13035888  0.56796038    -0.18900
C1854       C  0.59668984  0.12785710  0.56445988    -0.08800
C1855       C  0.51609795  0.12863440  0.60095670    -0.19100
C1856       C  0.49937737  0.13958933  0.58550566    -0.23900
C1857       C  0.46578327  0.14198090  0.59047157     0.26500
C1858       C  0.44774263  0.14613963  0.56469417    -0.20700
C1859       C  0.41586970  0.14756304  0.56766156    -0.10300
C1860       C  0.40120561  0.14522284  0.59672353    -0.10900
C1861       C  0.41943443  0.14202155  0.62309879    -0.03800
C1862       C  0.45144245  0.14030379  0.61996927    -0.18900
H1863       H  0.61040371  0.10932351  0.63353443     0.10200
H1864       H  0.55518333  0.11364316  0.63951685     0.10200
H1865       H  0.55290143  0.13596405  0.54901054     0.09900
H1866       H  0.60785015  0.13195984  0.54334586     0.11000
H1867       H  0.50486991  0.12160169  0.61881501     0.11100
H1868       H  0.51004618  0.14662403  0.56737958     0.13000
H1869       H  0.45824053  0.14771707  0.54183742     0.09500
H1870       H  0.40256115  0.15013203  0.54691213     0.11600
H1871       H  0.40884811  0.14014156  0.64579340     0.08200
H1872       H  0.46485682  0.13757959  0.64053918     0.11000
C1873       C  0.11786208  0.12771258  0.59741776    -0.03600
C1874       C  0.10224689  0.13962542  0.61565800    -0.06200
C1875       C  0.07046124  0.14163927  0.61284015    -0.21300
C1876       C  0.05343105  0.13152793  0.59241193     0.24400
C1877       C  0.06893401  0.11964235  0.57403604    -0.18900
C1878       C  0.10088845  0.11787590  0.57627557    -0.08800
C1879       C  0.01964736  0.13384570  0.59036868    -0.19100
C1880       C  0.99996142  0.12136152  0.58800605    -0.23900
C1881       C  0.96607783  0.12353899  0.58901369     0.26500
C1882       C  0.94819727  0.11239161  0.60510520    -0.20700
C1883       C  0.91626361  0.11405935  0.60667495    -0.10300
C1884       C  0.90129936  0.12668585  0.59140491    -0.10900
C1885       C  0.91918641  0.13770615  0.57471149    -0.03800
C1886       C  0.95131443  0.13623829  0.57377339    -0.18900
H1887       H  0.11467374  0.14755111  0.63185936     0.10200
H1888       H  0.05904264  0.15095960  0.62704360     0.10200
H1889       H  0.05642593  0.11188572  0.55761225     0.09900
H1890       H  0.11227044  0.10868329  0.56174435     0.11000
H1891       H  0.01063667  0.14603129  0.59370870     0.11100
H1892       H  0.00891369  0.10909947  0.58816206     0.13000
H1893       H  0.95903046  0.10245766  0.61685530     0.09500
H1894       H  0.90321797  0.10525504  0.61946107     0.11600
H1895       H  0.90837237  0.14750963  0.56257151     0.08200
H1896       H  0.96454267  0.14484136  0.56068210     0.11000
C1897       C  0.30675511  0.20408573  0.62680798    -0.03600
C1898       C  0.28795214  0.21745995  0.62073188    -0.06200
C1899       C  0.29996262  0.23314471  0.62117361    -0.21300
C1900       C  0.33125981  0.23594251  0.62696044     0.24400
C1901       C  0.35007637  0.22262249  0.63388039    -0.18900
C1902       C  0.33788767  0.20688492  0.63399263    -0.08800
C1903       C  0.34309727  0.25289913  0.62561923    -0.19100
C1904       C  0.37216772  0.25656189  0.61723602    -0.23900
C1905       C  0.38415425  0.27335688  0.61298136     0.26500
C1906       C  0.41198911  0.27507309  0.59666575    -0.20700
C1907       C  0.42460050  0.29032180  0.59181591    -0.10300
C1908       C  0.40990355  0.30450570  0.60324950    -0.10900
C1909       C  0.38214753  0.30288049  0.62004666    -0.03800
C1910       C  0.36938478  0.28750034  0.62484843    -0.18900
H1911       H  0.26384232  0.21578838  0.61536938     0.10200
H1912       H  0.28481798  0.24312705  0.61613132     0.10200
H1913       H  0.37414203  0.22430836  0.63931397     0.09900
H1914       H  0.35301587  0.19686401  0.63880730     0.11000
H1915       H  0.32650234  0.26257406  0.62920042     0.11100
H1916       H  0.38777957  0.24667465  0.61129681     0.13000
H1917       H  0.42406113  0.26450955  0.58731321     0.09500
H1918       H  0.44599843  0.29094451  0.57884048     0.11600
H1919       H  0.37012586  0.31348881  0.62922819     0.08200
H1920       H  0.34820117  0.28680922  0.63808436     0.11000
C1921       C  0.21389821  0.10519219  0.23719632    -0.03600
C1922       C  0.18807310  0.10678542  0.25707070    -0.06200
C1923       C  0.19127214  0.10660884  0.28992914    -0.21300
C1924       C  0.22035751  0.10507079  0.30386273     0.24400
C1925       C  0.24601360  0.10270250  0.28397642    -0.18900
C1926       C  0.24281645  0.10278746  0.25116035    -0.08800
C1927       C  0.22293806  0.10593965  0.33903024    -0.19100
C1928       C  0.24898330  0.11012093  0.35458823    -0.23900
C1929       C  0.25171824  0.11166671  0.38970771     0.26500
C1930       C  0.27668035  0.12028567  0.40280371    -0.20700
C1931       C  0.28025331  0.12206012  0.43555420    -0.10300
C1932       C  0.25889786  0.11522765  0.45614903    -0.10900
C1933       C  0.23423641  0.10634324  0.44304750    -0.03800
C1934       C  0.23074200  0.10451781  0.41034915    -0.18900
H1935       H  0.16542304  0.10854301  0.24728719     0.10200
H1936       H  0.17098304  0.10815739  0.30455878     0.10200
H1937       H  0.26866592  0.10080756  0.29356364     0.09900
H1938       H  0.26326719  0.10135356  0.23675338     0.11000
H1939       H  0.20201317  0.10402193  0.35231164     0.11100
H1940       H  0.26910718  0.11336865  0.34106665     0.13000
H1941       H  0.29337675  0.12583827  0.38759734     0.09500
H1942       H  0.29944460  0.12903013  0.44471598     0.11600
H1943       H  0.21749399  0.10074432  0.45812134     0.08200
H1944       H  0.21173873  0.09734622  0.40152248     0.11000
C1945       C  0.24841319  0.15644384  0.74325681    -0.03600
C1946       C  0.21804796  0.15874303  0.75409938    -0.06200
C1947       C  0.21175332  0.16217137  0.78577819    -0.21300
C1948       C  0.23548859  0.16336968  0.80786807     0.24400
C1949       C  0.26615851  0.16193465  0.79694074    -0.18900
C1950       C  0.27251395  0.15853385  0.76488158    -0.08800
C1951       C  0.22649207  0.16536195  0.84178861    -0.19100
C1952       C  0.24567555  0.16335874  0.86612719    -0.23900
C1953       C  0.23557279  0.16288845  0.89970326     0.26500
C1954       C  0.25798043  0.16500384  0.92301126    -0.20700
C1955       C  0.25128742  0.16202216  0.95440751    -0.10300
C1956       C  0.22197448  0.15665666  0.96347693    -0.10900
C1957       C  0.19874678  0.15564924  0.94065726    -0.03800
C1958       C  0.20548646  0.15866930  0.90896891    -0.18900
H1959       H  0.19881711  0.15752904  0.73811646     0.10200
H1960       H  0.18798894  0.16337610  0.79318840     0.10200
H1961       H  0.28534981  0.16316745  0.81285747     0.09900
H1962       H  0.29612604  0.15695701  0.75726543     0.11000
H1963       H  0.20241168  0.16773512  0.84678710     0.11100
H1964       H  0.26992137  0.16136956  0.86161779     0.13000
H1965       H  0.28121968  0.16832964  0.91672528     0.09500
H1966       H  0.26966137  0.16317220  0.97145066     0.11600
H1967       H  0.17601431  0.15149225  0.94688338     0.08200
H1968       H  0.18757238  0.15667656  0.89174387     0.11000
C1969       C  0.66001673  0.80098110  0.39656905    -0.03600
C1970       C  0.63115963  0.79934067  0.38203307    -0.06200
C1971       C  0.61899894  0.78402182  0.37461026    -0.21300
C1972       C  0.63542496  0.76986364  0.38099493     0.24400
C1973       C  0.66470249  0.77144960  0.39475737    -0.18900
C1974       C  0.67677470  0.78680033  0.40248952    -0.08800
C1975       C  0.62006005  0.75384684  0.37545718    -0.19100
C1976       C  0.63493626  0.73951053  0.37230425    -0.23900
C1977       C  0.61897902  0.72347228  0.36983603     0.26500
C1978       C  0.63498143  0.70985522  0.35762360    -0.20700
C1979       C  0.62176541  0.69436836  0.35773908    -0.10300
C1980       C  0.59227057  0.69207101  0.37048404    -0.10900
C1981       C  0.57598132  0.70577638  0.38191966    -0.03800
C1982       C  0.58908970  0.72121080  0.38165541    -0.18900
H1983       H  0.61745564  0.80990486  0.37722271     0.10200
H1984       H  0.59632998  0.78323134  0.36425310     0.10200
H1985       H  0.67788638  0.76089852  0.40073541     0.09900
H1986       H  0.69904121  0.78753442  0.41371442     0.11000
H1987       H  0.59521616  0.75403470  0.37357091     0.11100
H1988       H  0.65985064  0.73941004  0.37135140     0.13000
H1989       H  0.65808426  0.71115567  0.34850737     0.09500
H1990       H  0.63509254  0.68413569  0.34887025     0.11600
H1991       H  0.55324031  0.70455147  0.39197852     0.08200
H1992       H  0.57610358  0.73118364  0.39201812     0.11000
C1993       C  0.76928107  0.87824161  0.09239673    -0.03600
C1994       C  0.79248977  0.87295884  0.11256857    -0.06200
C1995       C  0.78615053  0.87040034  0.14435379    -0.21300
C1996       C  0.75644504  0.87286401  0.15669178     0.24400
C1997       C  0.73334413  0.87845978  0.13671381    -0.18900
C1998       C  0.73968995  0.88108841  0.10499062    -0.08800
C1999       C  0.75092305  0.87008529  0.19069419    -0.19100
C2000       C  0.72307543  0.86690213  0.20329580    -0.23900
C2001       C  0.71787317  0.86454706  0.23760080     0.26500
C2002       C  0.68804144  0.86635189  0.25024643    -0.20700
C2003       C  0.68279908  0.86541390  0.28279408    -0.10300
C2004       C  0.70740680  0.86265906  0.30319204    -0.10900
C2005       C  0.73680406  0.85987464  0.29026944    -0.03800
C2006       C  0.74197007  0.86068624  0.25799350    -0.18900
H2007       H  0.81548650  0.87060035  0.10374601     0.10200
H2008       H  0.80447743  0.86625983  0.15930167     0.10200
H2009       H  0.71044690  0.88105125  0.14546618     0.09900
H2010       H  0.72121007  0.88523655  0.09027343     0.11000
H2011       H  0.77100706  0.87067836  0.20565591     0.11100
H2012       H  0.70304842  0.86635913  0.18819717     0.13000
H2013       H  0.66891785  0.86904536  0.23503004     0.09500
H2014       H  0.65991045  0.86758570  0.29208823     0.11600
H2015       H  0.75616142  0.85736517  0.30532373     0.08200
H2016       H  0.76499199  0.85834675  0.24941676     0.11000
C2017       C  0.78372813  0.85601726  0.80145470    -0.03600
C2018       C  0.80798248  0.85889612  0.78049795    -0.06200
C2019       C  0.80356763  0.85675132  0.74791014    -0.21300
C2020       C  0.77497213  0.85162548  0.73590280     0.24400
C2021       C  0.75179761  0.84739519  0.75723141    -0.18900
C2022       C  0.75602448  0.84976480  0.78951401    -0.08800
C2023       C  0.76948785  0.85157162  0.70130135    -0.19100
C2024       C  0.74111220  0.85317080  0.68886482    -0.23900
C2025       C  0.73442918  0.85533821  0.65491673     0.26500
C2026       C  0.70371224  0.85441355  0.64477757    -0.20700
C2027       C  0.69577558  0.85782806  0.61377032    -0.10300
C2028       C  0.71844726  0.86236843  0.59225372    -0.10900
C2029       C  0.74927975  0.86292357  0.60223878    -0.03800
C2030       C  0.75719342  0.85948915  0.63310171    -0.18900
H2031       H  0.82965395  0.86361873  0.78914658     0.10200
H2032       H  0.82203836  0.85980549  0.73202319     0.10200
H2033       H  0.73007435  0.84251514  0.74924376     0.09900
H2034       H  0.73722309  0.84702592  0.80524082     0.11000
H2035       H  0.78956844  0.85128244  0.68615728     0.11100
H2036       H  0.72133661  0.85376316  0.70442758     0.13000
H2037       H  0.68565365  0.85129555  0.66109856     0.09500
H2038       H  0.67187625  0.85722113  0.60686304     0.11600
H2039       H  0.76749646  0.86623741  0.58628327     0.08200
H2040       H  0.78103187  0.86065149  0.63971995     0.11000
C2041       C  0.71909055  0.94024392  0.52193801    -0.03600
C2042       C  0.74488258  0.94410475  0.54045305    -0.06200
C2043       C  0.74683510  0.95913265  0.55672466    -0.21300
C2044       C  0.72294800  0.97063585  0.55534687     0.24400
C2045       C  0.69685098  0.96658181  0.53736477    -0.18900
C2046       C  0.69500022  0.95165258  0.52097671    -0.08800
C2047       C  0.72740106  0.98706141  0.57074029    -0.19100
C2048       C  0.70498851  0.99835230  0.57563642    -0.23900
C2049       C  0.71043900  0.01560459  0.58670405     0.26500
C2050       C  0.68525848  0.02635183  0.59008853    -0.20700
C2051       C  0.68970976  0.04305264  0.59615628    -0.10300
C2052       C  0.71953576  0.04936750  0.59891068    -0.10900
C2053       C  0.74444254  0.03851244  0.59748935    -0.03800
C2054       C  0.74008433  0.02196352  0.59157375    -0.18900
H2055       H  0.76383720  0.93566835  0.54184432     0.10200
H2056       H  0.76737698  0.96187434  0.57015024     0.10200
H2057       H  0.67811495  0.97502479  0.53493273     0.09900
H2058       H  0.67458116  0.94911836  0.50722022     0.11000
H2059       H  0.75073363  0.98986228  0.57759808     0.11100
H2060       H  0.68143117  0.99512156  0.57024034     0.13000
H2061       H  0.66207771  0.02193397  0.58660395     0.09500
H2062       H  0.67005850  0.05109946  0.59659851     0.11600
H2063       H  0.76774341  0.04301436  0.59938186     0.08200
H2064       H  0.76039142  0.01451789  0.58953489     0.11000
C2065       C  0.05973132  0.86881065  0.46574235    -0.03600
C2066       C  0.04343793  0.87091095  0.49426098    -0.06200
C2067       C  0.01140816  0.87244026  0.49452552    -0.21300
C2068       C  0.99461719  0.87212331  0.46636418     0.24400
C2069       C  0.01080727  0.86989383  0.43772911    -0.18900
C2070       C  0.04294469  0.86826087  0.43746772    -0.08800
C2071       C  0.96039020  0.87375244  0.46831522    -0.19100
C2072       C  0.94228592  0.87800127  0.44416524    -0.23900
C2073       C  0.90809092  0.87979406  0.44625250     0.26500
C2074       C  0.89118443  0.87956991  0.41817435    -0.20700
C2075       C  0.85918730  0.88124248  0.41859707    -0.10300
C2076       C  0.84301437  0.88332834  0.44720125    -0.10900
C2077       C  0.85993221  0.88382927  0.47539240    -0.03800
C2078       C  0.89205669  0.88212830  0.47496003    -0.18900
H2079       H  0.05542548  0.87134344  0.51655392     0.10200
H2080       H  0.99968482  0.87401372  0.51695173     0.10200
H2081       H  0.99888507  0.86913420  0.41547222     0.09900
H2082       H  0.05464448  0.86663585  0.41505560     0.11000
H2083       H  0.94995166  0.87156196  0.49098613     0.11100
H2084       H  0.95270731  0.88016847  0.42147474     0.13000
H2085       H  0.90277347  0.87789259  0.39569725     0.09500
H2086       H  0.84709697  0.88067968  0.39636838     0.11600
H2087       H  0.84833572  0.88536668  0.49787977     0.08200
H2088       H  0.90407957  0.88283861  0.49716133     0.11000
C2089       C  0.34497909  0.88440003  0.45580700    -0.03600
C2090       C  0.36253122  0.88027651  0.42888125    -0.06200
C2091       C  0.39461412  0.87949695  0.43043083    -0.21300
C2092       C  0.40995134  0.88272103  0.45905467     0.24400
C2093       C  0.39253768  0.88757747  0.48557131    -0.18900
C2094       C  0.36045655  0.88833973  0.48405647    -0.08800
C2095       C  0.44391177  0.88111931  0.46221247    -0.19100
C2096       C  0.46103860  0.87105041  0.44367736    -0.23900
C2097       C  0.49486606  0.86877606  0.44690673     0.26500
C2098       C  0.51133673  0.86207066  0.42117443    -0.20700
C2099       C  0.54313799  0.85977677  0.42281336    -0.10300
C2100       C  0.55931110  0.86395109  0.45046131    -0.10900
C2101       C  0.54269117  0.87019452  0.47661884    -0.03800
C2102       C  0.51087296  0.87260055  0.47489185    -0.18900
H2103       H  0.35146939  0.87735867  0.40664742     0.10200
H2104       H  0.40722242  0.87636533  0.40912487     0.10200
H2105       H  0.40374280  0.89034978  0.50780861     0.09900
H2106       H  0.34778744  0.89165731  0.50527288     0.11000
H2107       H  0.45471527  0.88805644  0.48118158     0.11100
H2108       H  0.44993460  0.86405532  0.42496183     0.13000
H2109       H  0.49959752  0.85880758  0.39946347     0.09500
H2110       H  0.55508680  0.85485491  0.40226226     0.11600
H2111       H  0.55434668  0.87351364  0.49833559     0.08200
H2112       H  0.49903581  0.87729261  0.49564230     0.11000
C2113       C  0.15431381  0.80064116  0.42938686    -0.03600
C2114       C  0.12834693  0.79804827  0.41027521    -0.06200
C2115       C  0.11666792  0.78242421  0.40483443    -0.21300
C2116       C  0.13037638  0.76892965  0.41844529     0.24400
C2117       C  0.15655603  0.77149262  0.43735914    -0.18900
C2118       C  0.16823777  0.78711111  0.44279752    -0.08800
C2119       C  0.11717377  0.75248542  0.41140031    -0.19100
C2120       C  0.12285846  0.73929986  0.42852269    -0.23900
C2121       C  0.11001867  0.72271347  0.42194084     0.26500
C2122       C  0.12027888  0.71005926  0.44054194    -0.20700
C2123       C  0.10917432  0.69432230  0.43590945    -0.10300
C2124       C  0.08719966  0.69065957  0.41253451    -0.10900
C2125       C  0.07680907  0.70327287  0.39380529    -0.03800
C2126       C  0.08805437  0.71909101  0.39838617    -0.18900
H2127       H  0.11694687  0.80810105  0.39949814     0.10200
H2128       H  0.09665508  0.78088792  0.38997421     0.10200
H2129       H  0.16856812  0.76152267  0.44762762     0.09900
H2130       H  0.18838708  0.78854829  0.45747769     0.11000
H2131       H  0.10173916  0.75149056  0.39152096     0.11100
H2132       H  0.13764906  0.74058610  0.44890913     0.13000
H2133       H  0.13708932  0.71233687  0.45887965     0.09500
H2134       H  0.11781069  0.68501555  0.45091495     0.11600
H2135       H  0.05995725  0.70093489  0.37555662     0.08200
H2136       H  0.07915791  0.72832172  0.38349724     0.11000
C2137       C  0.26711300  0.87054208  0.10758925    -0.03600
C2138       C  0.29100678  0.86702618  0.12847855    -0.06200
C2139       C  0.28457308  0.86380797  0.16005968    -0.21300
C2140       C  0.25415295  0.86383429  0.17142514     0.24400
C2141       C  0.23034262  0.86750519  0.15052042    -0.18900
C2142       C  0.23674741  0.87074767  0.11913237    -0.08800
C2143       C  0.24837906  0.86054418  0.20529776    -0.19100
C2144       C  0.22045768  0.85717215  0.21752038    -0.23900
C2145       C  0.21506611  0.85507288  0.25172569     0.26500
C2146       C  0.18663973  0.85972098  0.26506702    -0.20700
C2147       C  0.18180448  0.85922885  0.29768030    -0.10300
C2148       C  0.20533597  0.85396468  0.31739384    -0.10900
C2149       C  0.23295137  0.84826245  0.30373413    -0.03800
C2150       C  0.23776612  0.84876432  0.27128870    -0.18900
H2151       H  0.31464772  0.86674995  0.12045554     0.10200
H2152       H  0.30345639  0.86118930  0.17564427     0.10200
H2153       H  0.20666804  0.86819251  0.15811194     0.09900
H2154       H  0.21765440  0.87339280  0.10385979     0.11000
H2155       H  0.26808370  0.86121236  0.22086889     0.11100
H2156       H  0.20037562  0.85666631  0.20257373     0.13000
H2157       H  0.16865031  0.86445026  0.25038563     0.09500
H2158       H  0.16046633  0.86386151  0.30760471     0.11600
H2159       H  0.25139167  0.84398481  0.31839107     0.08200
H2160       H  0.25945603  0.84445725  0.26171092     0.11000
C2161       C  0.28670085  0.86404205  0.81410799    -0.03600
C2162       C  0.30974853  0.87074520  0.79535545    -0.06200
C2163       C  0.30538680  0.87195148  0.76274140    -0.21300
C2164       C  0.27800653  0.86645810  0.74852339     0.24400
C2165       C  0.25634906  0.85848570  0.76709934    -0.18900
C2166       C  0.26050101  0.85748066  0.79947371    -0.08800
C2167       C  0.27218763  0.86936319  0.71459794    -0.19100
C2168       C  0.24346852  0.87055695  0.70282560    -0.23900
C2169       C  0.23611971  0.87298760  0.66915052     0.26500
C2170       C  0.20696690  0.86835934  0.65795592    -0.20700
C2171       C  0.19898535  0.87022469  0.62638267    -0.10300
C2172       C  0.21997662  0.87691106  0.60533419    -0.10900
C2173       C  0.24887517  0.88197703  0.61682531    -0.03800
C2174       C  0.25685676  0.88006526  0.64831254    -0.18900
H2175       H  0.33017064  0.87589053  0.80610842     0.10200
H2176       H  0.32277072  0.87782837  0.74885954     0.10200
H2177       H  0.23581432  0.85322292  0.75690813     0.09900
H2178       H  0.24265570  0.85196469  0.81334247     0.11000
H2179       H  0.29198393  0.87083992  0.69938446     0.11100
H2180       H  0.22390603  0.86939521  0.71846432     0.13000
H2181       H  0.19042873  0.86302293  0.67363544     0.09500
H2182       H  0.17659731  0.86620654  0.61838974     0.11600
H2183       H  0.26554131  0.88741174  0.60144932     0.08200
H2184       H  0.27909931  0.88431022  0.65618625     0.11000
C2185       C  0.23200909  0.05762473  0.56129407    -0.03600
C2186       C  0.21708077  0.05361681  0.53283632    -0.06200
C2187       C  0.21452665  0.03740798  0.52238337    -0.21300
C2188       C  0.22685212  0.02482921  0.54002341     0.24400
C2189       C  0.24071280  0.02883989  0.56907309    -0.18900
C2190       C  0.24339844  0.04498315  0.57940317    -0.08800
C2191       C  0.22448565  0.00778241  0.52750329    -0.19100
C2192       C  0.24209325  0.99541585  0.53730614    -0.23900
C2193       C  0.23964696  0.97847670  0.52443680     0.26500
C2194       C  0.24883817  0.96560411  0.54314110    -0.20700
C2195       C  0.24596156  0.94950999  0.53215086    -0.10300
C2196       C  0.23398108  0.94595519  0.50205551    -0.10900
C2197       C  0.22608742  0.95888658  0.48287428    -0.03800
C2198       C  0.22897608  0.97491273  0.49382645    -0.18900
H2199       H  0.20805687  0.06301200  0.51827392     0.10200
H2200       H  0.20338165  0.03470863  0.50008840     0.10200
H2201       H  0.24943467  0.01962580  0.58414461     0.09900
H2202       H  0.25459805  0.04756047  0.60170934     0.11000
H2203       H  0.20772300  0.00547784  0.50908232     0.11100
H2204       H  0.25874049  0.99753114  0.55586722     0.13000
H2205       H  0.25759719  0.96799809  0.56665030     0.09500
H2206       H  0.25230332  0.93986960  0.54752464     0.11600
H2207       H  0.21733732  0.95662808  0.45932352     0.08200
H2208       H  0.22294187  0.98443955  0.47812519     0.11000
loop_ 
_geom_bond_atom_site_label_1 
_geom_bond_atom_site_label_2 
_geom_bond_distance 
_geom_bond_site_symmetry_2 
_ccdc_geom_bond_type 
Zr1           O2   2.441       .  S
Zr1           O3   2.452       .  S
Zr1           O4   2.472       .  S
Zr1           O7   2.459       .  S
Zr1           O9   2.387       .  S
Zr1          O10   2.395       .  S
Zr1          O11   2.412       .  S
Zr1          O12   2.400       .  S
O2           H58   0.990       .  S
O2           H66   0.991       .  S
O3           C23   1.288       .  A
O4           C25   1.290       .  A
O5          Zr15   2.436       .  S
O5           C24   1.287       .  A
O6          Zr14   2.395       .  S
O6           C25   1.278       .  A
O7           C24   1.291       .  A
O8          Zr16   2.436       .  S
O8           C23   1.285       .  A
O9          Zr14   2.402       .  S
O9          Zr16   2.368       .  S
O10         Zr15   2.398       .  S
O10         Zr16   2.379       .  S
O10          H45   0.966       .  S
O11         Zr14   2.406       .  S
O11         Zr31   2.391       .  S
O11          H48   0.966       .  S
O12         Zr15   2.400       .  S
O12         Zr31   2.387       .  S
Zr13         O38   2.443       .  S
Zr13         O32   2.463       .  S
Zr13         O40   2.407       .  S
Zr13         O28   2.437       .  S
Zr13         O19   2.409       .  S
Zr13         O20   2.419       .  S
Zr13         O21   2.372       .  S
Zr13         O22   2.381       .  S
Zr14         O33   2.435       .  S
Zr14         O26   2.435       .  S
Zr14         O27   2.434       .  S
Zr14         O20   2.389       .  S
Zr14         O21   2.391       .  S
Zr15         O17   2.435       .  S
Zr15         O39   2.443       .  S
Zr15         O41   2.461       .  S
Zr15         O19   2.380       .  S
Zr15         O22   2.396       .  S
Zr16         O42   2.435       .  S
Zr16         O43   2.435       .  S
Zr16         O18   2.439       .  S
Zr16         O19   2.399       .  S
Zr16         O20   2.407       .  S
O17          H54   0.990       .  S
O18          H49   0.990       .  S
O18          H63   0.990       .  S
O20          H46   0.965       .  S
O21         Zr31   2.382       .  S
O22         Zr31   2.392       .  S
O22          H47   0.966       .  S
C23        C2113   1.497       .  S
C24        C2065   1.494       .  S
C25        C2148   1.478       .  S
O26          H62   0.990       .  S
O27          C29   1.284       .  A
O28          C29   1.283       .  A
C29        C2089   1.488       .  S
O30         Zr31   2.439       .  S
O30          H59   0.990       .  S
Zr31         O34   2.437       .  S
Zr31         O35   2.440       .  S
Zr31         O36   2.406       .  S
O32          C37   1.287       .  A
O33          H50   0.990       .  S
O33          H65   0.990       .  S
O34          H51   0.990       .  S
O35          H55   0.990       .  S
O35          H64   0.990       .  S
O36          C37   1.279       .  A
C37        C2196   1.489       .  S
O38          H57   0.991       .  S
O38          H61   0.990       .  S
O39          H53   0.990       .  S
O39          H60   0.990       .  S
O40          C44   1.279       .  A
O41          C44   1.289       .  A
O42          H52   0.990       .  S
O43          H56   0.990       .  S
C44        C2172   1.486       .  S
Zr67         O68   2.442       .  S
Zr67         O69   2.456       .  S
Zr67         O70   2.470       .  S
Zr67         O73   2.447       .  S
Zr67         O75   2.378       .  S
Zr67         O76   2.393       .  S
Zr67         O77   2.417       .  S
Zr67         O78   2.401       .  S
O68         H124   0.990       .  S
O68         H132   0.990       .  S
O69          C89   1.288       .  A
O70          C91   1.289       .  A
O71         Zr81   2.439       .  S
O71          C90   1.288       .  A
O72         Zr80   2.392       .  S
O72          C91   1.277       .  A
O73          C90   1.289       .  A
O74         Zr82   2.437       .  S
O74          C89   1.284       .  A
O75         Zr80   2.403       .  S
O75         Zr82   2.371       .  S
O76         Zr81   2.399       .  S
O76         Zr82   2.377       .  S
O76         H111   0.966       .  S
O77         Zr80   2.395       .  S
O77         Zr97   2.407       .  S
O77         H114   0.966       .  S
O78         Zr81   2.392       .  S
O78         Zr97   2.380       .  S
Zr79        O104   2.444       .  S
Zr79         O98   2.481       .  S
Zr79        O106   2.412       .  S
Zr79         O94   2.466       .  S
Zr79         O85   2.414       .  S
Zr79         O86   2.417       .  S
Zr79         O87   2.377       .  S
Zr79         O88   2.388       .  S
Zr80         O99   2.435       .  S
Zr80         O92   2.434       .  S
Zr80         O93   2.428       .  S
Zr80         O86   2.391       .  S
Zr80         O87   2.386       .  S
Zr81         O83   2.436       .  S
Zr81        O105   2.436       .  S
Zr81        O107   2.455       .  S
Zr81         O85   2.385       .  S
Zr81         O88   2.392       .  S
Zr82        O108   2.436       .  S
Zr82        O109   2.434       .  S
Zr82         O84   2.438       .  S
Zr82         O85   2.396       .  S
Zr82         O86   2.401       .  S
O83         H120   0.990       .  S
O84         H115   0.990       .  S
O84         H129   0.990       .  S
O86         H112   0.964       .  S
O87         Zr97   2.392       .  S
O88         Zr97   2.385       .  S
O88         H113   0.966       .  S
C89        C1969   1.498       .  S
C90        C2100   1.489       .  S
C91        C2004   1.481       .  S
O92         H128   0.990       .  S
O93          C95   1.283       .  A
O94          C95   1.288       .  A
C95        C2076   1.494       .  S
O96         Zr97   2.439       .  S
O96         H125   0.990       .  S
Zr97        O100   2.437       .  S
Zr97        O101   2.442       .  S
Zr97        O102   2.413       .  S
O98         C103   1.292       .  A
O99         H116   0.990       .  S
O99         H131   0.990       .  S
O100        H117   0.990       .  S
O101        H121   0.990       .  S
O101        H130   0.990       .  S
O102        C103   1.280       .  A
C103       C2041   1.498       .  S
O104        H123   0.991       .  S
O104        H127   0.990       .  S
O105        H119   0.990       .  S
O105        H126   0.990       .  S
O106        C110   1.281       .  A
O107        C110   1.289       .  A
O108        H118   0.990       .  S
O109        H122   0.990       .  S
C110       C2028   1.484       .  S
Zr133       O134   2.442       .  S
Zr133       O135   2.463       .  S
Zr133       O136   2.440       .  S
Zr133       O139   2.449       .  S
Zr133       O141   2.378       .  S
Zr133       O142   2.386       .  S
Zr133       O143   2.416       .  S
Zr133       O144   2.404       .  S
O134        H190   0.990       .  S
O134        H198   0.991       .  S
O135        C155   1.288       .  A
O136        C157   1.284       .  A
O137       Zr147   2.432       .  S
O137        C156   1.284       .  A
O138       Zr146   2.449       .  S
O138        C157   1.287       .  A
O139        C156   1.287       .  A
O140       Zr148   2.414       .  S
O140        C155   1.280       .  A
O141       Zr146   2.395       .  S
O141       Zr148   2.383       .  S
O142       Zr147   2.393       .  S
O142       Zr148   2.385       .  S
O142        H177   0.966       .  S
O143       Zr146   2.400       .  S
O143       Zr163   2.404       .  S
O143        H180   0.965       .  S
O144       Zr147   2.380       .  S
O144       Zr163   2.391       .  S
Zr145       O170   2.440       .  S
Zr145       O164   2.450       .  S
Zr145       O172   2.475       .  S
Zr145       O160   2.466       .  S
Zr145       O151   2.415       .  S
Zr145       O152   2.413       .  S
Zr145       O153   2.387       .  S
Zr145       O154   2.388       .  S
Zr146       O165   2.436       .  S
Zr146       O158   2.434       .  S
Zr146       O159   2.427       .  S
Zr146       O152   2.405       .  S
Zr146       O153   2.396       .  S
Zr147       O149   2.438       .  S
Zr147       O171   2.439       .  S
Zr147       O173   2.406       .  S
Zr147       O151   2.393       .  S
Zr147       O154   2.401       .  S
Zr148       O174   2.437       .  S
Zr148       O175   2.437       .  S
Zr148       O150   2.437       .  S
Zr148       O151   2.399       .  S
Zr148       O152   2.386       .  S
O149        H186   0.990       .  S
O150        H181   0.990       .  S
O150        H195   0.990       .  S
O152        H178   0.965       .  S
O153       Zr163   2.372       .  S
O154       Zr163   2.368       .  S
O154        H179   0.966       .  S
C155       C2185   1.492       .  S
C156       C1873   1.486       .  S
C157       C1932   1.493       .  S
O158        H194   0.990       .  S
O159        C161   1.285       .  A
O160        C161   1.291       .  A
C161       C1860   1.487       .  S
O162       Zr163   2.438       .  S
O162        H191   0.991       .  S
Zr163       O166   2.435       .  S
Zr163       O167   2.441       .  S
Zr163       O168   2.436       .  S
O164        C169   1.287       .  A
O165        H182   0.990       .  S
O165        H197   0.990       .  S
O166        H183   0.990       .  S
O167        H187   0.990       .  S
O167        H196   0.990       .  S
O168        C169   1.285       .  A
C169       C1897   1.493       .  S
O170        H189   0.990       .  S
O170        H193   0.990       .  S
O171        H185   0.990       .  S
O171        H192   0.990       .  S
O172        C176   1.293       .  A
O173        C176   1.280       .  A
O174        H184   0.990       .  S
O175        H188   0.990       .  S
C176       C1945   1.490       .  S
Zr199       O200   2.440       .  S
Zr199       O201   2.432       .  S
Zr199       O202   2.459       .  S
Zr199       O205   2.448       .  S
Zr199       O207   2.384       .  S
Zr199       O208   2.388       .  S
Zr199       O209   2.402       .  S
Zr199       O210   2.400       .  S
O200        H256   0.990       .  S
O200        H264   0.991       .  S
O201        C221   1.285       .  A
O202        C223   1.289       .  A
O203       Zr213   2.431       .  S
O203        C222   1.286       .  A
O204       Zr212   2.412       .  S
O204        C223   1.282       .  A
O205        C222   1.288       .  A
O206       Zr214   2.464       .  S
O206        C221   1.289       .  A
O207       Zr212   2.401       .  S
O207       Zr214   2.371       .  S
O208       Zr213   2.394       .  S
O208       Zr214   2.372       .  S
O208        H243   0.966       .  S
O209       Zr212   2.396       .  S
O209       Zr229   2.387       .  S
O209        H246   0.965       .  S
O210       Zr213   2.393       .  S
O210       Zr229   2.383       .  S
Zr211       O236   2.444       .  S
Zr211       O230   2.502       .  S
Zr211       O238   2.433       .  S
Zr211       O226   2.444       .  S
Zr211       O217   2.423       .  S
Zr211       O218   2.427       .  S
Zr211       O219   2.375       .  S
Zr211       O220   2.385       .  S
Zr212       O231   2.434       .  S
Zr212       O224   2.435       .  S
Zr212       O225   2.435       .  S
Zr212       O218   2.390       .  S
Zr212       O219   2.390       .  S
Zr213       O215   2.436       .  S
Zr213       O237   2.437       .  S
Zr213       O239   2.445       .  S
Zr213       O217   2.387       .  S
Zr213       O220   2.397       .  S
Zr214       O240   2.437       .  S
Zr214       O241   2.436       .  S
Zr214       O216   2.436       .  S
Zr214       O217   2.408       .  S
Zr214       O218   2.409       .  S
O215        H252   0.990       .  S
O216        H247   0.990       .  S
O216        H261   0.990       .  S
O218        H244   0.965       .  S
O219       Zr229   2.386       .  S
O220       Zr229   2.390       .  S
O220        H245   0.966       .  S
C221       C1777   1.502       .  S
C222       C1884   1.487       .  S
C223       C1812   1.483       .  S
O224        H260   0.990       .  S
O225        C227   1.285       .  A
O226        C227   1.286       .  A
C227       C1849   1.490       .  S
O228       Zr229   2.439       .  S
O228        H257   0.990       .  S
Zr229       O232   2.438       .  S
Zr229       O233   2.438       .  S
Zr229       O234   2.395       .  S
O230        C235   1.295       .  A
O231        H248   0.990       .  S
O231        H263   0.990       .  S
O232        H249   0.990       .  S
O233        H253   0.990       .  S
O233        H262   0.990       .  S
O234        C235   1.277       .  A
C235       C2052   1.492       .  S
O236        H255   0.990       .  S
O236        H259   0.991       .  S
O237        H251   0.990       .  S
O237        H258   0.990       .  S
O238        C242   1.283       .  A
O239        C242   1.287       .  A
O240        H250   0.990       .  S
O241        H254   0.990       .  S
C242       C1825   1.489       .  S
Zr265       O266   2.442       .  S
Zr265       O267   2.490       .  S
Zr265       O268   2.435       .  S
Zr265       O271   2.447   1_554  S
Zr265       O273   2.376       .  S
Zr265       O274   2.384   1_554  S
Zr265       O275   2.425       .  S
Zr265       O276   2.418   1_554  S
O266        H322   0.990       .  S
O266        H330   0.990       .  S
O267        C287   1.293       .  A
O268        C289   1.285       .  A
O269       Zr279   2.421       .  S
O269        C288   1.283       .  A
O270       Zr278   2.454       .  S
O270        C289   1.289       .  A
O271        C288   1.286       .  A
O272       Zr280   2.411       .  S
O272        C287   1.280   1_556  A
O273       Zr278   2.400       .  S
O273       Zr280   2.384   1_554  S
O274       Zr279   2.398       .  S
O274       Zr280   2.377       .  S
O274        H309   0.966       .  S
O275       Zr278   2.403       .  S
O275       Zr295   2.395   1_554  S
O275        H312   0.964       .  S
O276       Zr279   2.389       .  S
O276       Zr295   2.403       .  S
Zr277       O302   2.440       .  S
Zr277       O296   2.447       .  S
Zr277       O304   2.453       .  S
Zr277       O292   2.451       .  S
Zr277       O283   2.408       .  S
Zr277       O284   2.407       .  S
Zr277       O285   2.382       .  S
Zr277       O286   2.385       .  S
Zr278       O297   2.436       .  S
Zr278       O290   2.433       .  S
Zr278       O291   2.443   1_554  S
Zr278       O284   2.405   1_554  S
Zr278       O285   2.395   1_554  S
Zr279       O281   2.436       .  S
Zr279       O303   2.436       .  S
Zr279       O305   2.420       .  S
Zr279       O283   2.384       .  S
Zr279       O286   2.396       .  S
Zr280       O306   2.436       .  S
Zr280       O307   2.436       .  S
Zr280       O282   2.435       .  S
Zr280       O283   2.395       .  S
Zr280       O284   2.388       .  S
O281        H318   0.991       .  S
O282        H313   0.990       .  S
O282        H327   0.990   1_556  S
O284        H310   0.965       .  S
O285       Zr295   2.377       .  S
O286       Zr295   2.365       .  S
O286        H311   0.966       .  S
C287       C1753   1.507       .  S
C288       C1716   1.483       .  S
C289       C2137   1.489       .  S
O290        H326   0.990       .  S
O291        C293   1.288       .  A
O292        C293   1.288       .  A
C293       C1681   1.492       .  S
O294       Zr295   2.439       .  S
O294        H323   0.990       .  S
Zr295       O298   2.437   1_556  S
Zr295       O299   2.441       .  S
Zr295       O300   2.441       .  S
O296        C301   1.288       .  A
O297        H314   0.990       .  S
O297        H329   0.990       .  S
O298        H315   0.990       .  S
O299        H319   0.990       .  S
O299        H328   0.990       .  S
O300        C301   1.286       .  A
C301       C1740   1.496       .  S
O302        H321   0.991       .  S
O302        H325   0.990       .  S
O303        H317   0.990       .  S
O303        H324   0.990       .  S
O304        C308   1.288       .  A
O305        C308   1.283       .  A
O306        H316   0.990       .  S
O307        H320   0.990       .  S
C308       C2161   1.479       .  S
Zr331       O332   2.444   1_556  S
Zr331       O333   2.472       .  S
Zr331       O334   2.433   1_556  S
Zr331       O337   2.433       .  S
Zr331       O339   2.377       .  S
Zr331       O340   2.386       .  S
Zr331       O341   2.423       .  S
Zr331       O342   2.416       .  S
O332        H388   0.991       .  S
O332        H396   0.991       .  S
O333        C353   1.289       .  A
O334        C355   1.282       .  A
O335       Zr345   2.437       .  S
O335        C354   1.285       .  A
O336       Zr344   2.447   1_554  S
O336        C355   1.287       .  A
O337        C354   1.284       .  A
O338       Zr346   2.395       .  S
O338        C353   1.277       .  A
O339       Zr344   2.396       .  S
O339       Zr346   2.389       .  S
O340       Zr345   2.392       .  S
O340       Zr346   2.384       .  S
O340        H375   0.966       .  S
O341       Zr344   2.394       .  S
O341       Zr361   2.400       .  S
O341        H378   0.964   1_556  S
O342       Zr345   2.386       .  S
O342       Zr361   2.408       .  S
Zr343       O368   2.440       .  S
Zr343       O362   2.435       .  S
Zr343       O370   2.449       .  S
Zr343       O358   2.450       .  S
Zr343       O349   2.408       .  S
Zr343       O350   2.408       .  S
Zr343       O351   2.383       .  S
Zr343       O352   2.389       .  S
Zr344       O363   2.436   1_556  S
Zr344       O356   2.435   1_556  S
Zr344       O357   2.422       .  S
Zr344       O350   2.407       .  S
Zr344       O351   2.393       .  S
Zr345       O347   2.437       .  S
Zr345       O369   2.436       .  S
Zr345       O371   2.423       .  S
Zr345       O349   2.390       .  S
Zr345       O352   2.403       .  S
Zr346       O372   2.436       .  S
Zr346       O373   2.435       .  S
Zr346       O348   2.436       .  S
Zr346       O349   2.392       .  S
Zr346       O350   2.376       .  S
O347        H384   0.990       .  S
O348        H379   0.990       .  S
O348        H393   0.990       .  S
O350        H376   0.965       .  S
O351       Zr361   2.370       .  S
O352       Zr361   2.363       .  S
O352        H377   0.966       .  S
C353       C1657   1.490       .  S
C354       C1692   1.490       .  S
C355       C1993   1.488       .  S
O356        H392   0.990       .  S
O357        C359   1.285       .  A
O358        C359   1.289       .  A
C359       C1705   1.482       .  S
O360       Zr361   2.438       .  S
O360        H389   0.990       .  S
Zr361       O364   2.437       .  S
Zr361       O365   2.439       .  S
Zr361       O366   2.458       .  S
O362        C367   1.286       .  A
O363        H380   0.990       .  S
O363        H395   0.990       .  S
O364        H381   0.990       .  S
O365        H385   0.990       .  S
O365        H394   0.990       .  S
O366        C367   1.288       .  A
C367       C1644   1.500       .  S
O368        H387   0.990       .  S
O368        H391   0.990       .  S
O369        H383   0.990       .  S
O369        H390   0.990       .  S
O370        C374   1.287       .  A
O371        C374   1.284       .  A
O372        H382   0.991       .  S
O373        H386   0.990       .  S
C374       C2017   1.478       .  S
Zr397       O398   2.442       .  S
Zr397       O399   2.497       .  S
Zr397       O400   2.447       .  S
Zr397       O403   2.444       .  S
Zr397       O405   2.375       .  S
Zr397       O406   2.379       .  S
Zr397       O407   2.425       .  S
Zr397       O408   2.423       .  S
O398        H454   0.990       .  S
O398        H462   0.990       .  S
O399        C419   1.294       .  A
O400        C421   1.286       .  A
O401       Zr411   2.409       .  S
O401        C420   1.281       .  A
O402       Zr410   2.457       .  S
O402        C421   1.289       .  A
O403        C420   1.286       .  A
O404       Zr412   2.395       .  S
O404        C419   1.276       .  A
O405       Zr410   2.400       .  S
O405       Zr412   2.389       .  S
O406       Zr411   2.394       .  S
O406       Zr412   2.375       .  S
O406        H441   0.965       .  S
O407       Zr410   2.395       .  S
O407       Zr427   2.398       .  S
O407        H444   0.964       .  S
O408       Zr411   2.385       .  S
O408       Zr427   2.411       .  S
Zr409       O434   2.441       .  S
Zr409       O428   2.417       .  S
Zr409       O436   2.471       .  S
Zr409       O424   2.466       .  S
Zr409       O415   2.400       .  S
Zr409       O416   2.407       .  S
Zr409       O417   2.390       .  S
Zr409       O418   2.386       .  S
Zr410       O429   2.437       .  S
Zr410       O422   2.433       .  S
Zr410       O423   2.421       .  S
Zr410       O416   2.416       .  S
Zr410       O417   2.399       .  S
Zr411       O413   2.437       .  S
Zr411       O435   2.436       .  S
Zr411       O437   2.402       .  S
Zr411       O415   2.390       .  S
Zr411       O418   2.390       .  S
Zr412       O438   2.436       .  S
Zr412       O439   2.435       .  S
Zr412       O414   2.437       .  S
Zr412       O415   2.388       .  S
Zr412       O416   2.374       .  S
O413        H450   0.990       .  S
O414        H445   0.990       .  S
O414        H459   0.990       .  S
O416        H442   0.964       .  S
O417       Zr427   2.375       .  S
O418       Zr427   2.366       .  S
O418        H443   0.966       .  S
C419       C1764   1.495       .  S
C420       C1585   1.481       .  S
C421       C1921   1.496       .  S
O422        H458   0.990       .  S
O423        C425   1.285       .  A
O424        C425   1.290       .  A
C425       C1572   1.480       .  S
O426       Zr427   2.440       .  S
O426        H455   0.991       .  S
Zr427       O430   2.437       .  S
Zr427       O431   2.440       .  S
Zr427       O432   2.453       .  S
O428        C433   1.282       .  A
O429        H446   0.990       .  S
O429        H461   0.990       .  S
O430        H447   0.990       .  S
O431        H451   0.990       .  S
O431        H460   0.990       .  S
O432        C433   1.287       .  A
C433       C1620   1.490       .  S
O434        H453   0.990       .  S
O434        H457   0.991       .  S
O435        H449   0.990   1_554  S
O435        H456   0.990       .  S
O436        C440   1.291   1_554  A
O437        C440   1.280   1_554  A
O438        H448   0.990       .  S
O439        H452   0.990       .  S
C440       C1956   1.487       .  S
Zr463       O464   2.442       .  S
Zr463       O465   2.457       .  S
Zr463       O466   2.475       .  S
Zr463       O469   2.433       .  S
Zr463       O471   2.378       .  S
Zr463       O472   2.392       .  S
Zr463       O473   2.410       .  S
Zr463       O474   2.407       .  S
O464        H520   0.990       .  S
O464        H528   0.990       .  S
O465        C485   1.288       .  A
O466        C487   1.290       .  A
O467       Zr477   2.427       .  S
O467        C486   1.285       .  A
O468       Zr476   2.404       .  S
O468        C487   1.280       .  A
O469        C486   1.285       .  A
O470       Zr478   2.427       .  S
O470        C485   1.283       .  A
O471       Zr476   2.397       .  S
O471       Zr478   2.379       .  S
O472       Zr477   2.397       .  S
O472       Zr478   2.375       .  S
O472        H507   0.966       .  S
O473       Zr476   2.400       .  S
O473       Zr493   2.399       .  S
O473        H510   0.966       .  S
O474       Zr477   2.399       .  S
O474       Zr493   2.390       .  S
Zr475       O500   2.443       .  S
Zr475       O494   2.462       .  S
Zr475       O502   2.425       .  S
Zr475       O490   2.457       .  S
Zr475       O481   2.408       .  S
Zr475       O482   2.414       .  S
Zr475       O483   2.377       .  S
Zr475       O484   2.383       .  S
Zr476       O495   2.436       .  S
Zr476       O488   2.434       .  S
Zr476       O489   2.408       .  S
Zr476       O482   2.395       .  S
Zr476       O483   2.397       .  S
Zr477       O479   2.436       .  S
Zr477       O501   2.438       .  S
Zr477       O503   2.453   1_554  S
Zr477       O481   2.386       .  S
Zr477       O484   2.389       .  S
Zr478       O504   2.437       .  S
Zr478       O505   2.435       .  S
Zr478       O480   2.437       .  S
Zr478       O481   2.393       .  S
Zr478       O482   2.396       .  S
O479        H516   0.990       .  S
O480        H511   0.990       .  S
O480        H525   0.990       .  S
O482        H508   0.965       .  S
O483       Zr493   2.381       .  S
O484       Zr493   2.383       .  S
O484        H509   0.966       .  S
C485       C1548   1.494       .  S
C486       C1596   1.473       .  S
C487       C1801   1.487       .  S
O488        H524   0.990       .  S
O489        C491   1.280       .  A
O490        C491   1.287       .  A
C491       C1561   1.479       .  S
O492       Zr493   2.438       .  S
O492        H521   0.991       .  S
Zr493       O496   2.437       .  S
Zr493       O497   2.440       .  S
Zr493       O498   2.414       .  S
O494        C499   1.289       .  A
O495        H512   0.990       .  S
O495        H527   0.990       .  S
O496        H513   0.990       .  S
O497        H517   0.990       .  S
O497        H526   0.990       .  S
O498        C499   1.281       .  A
C499       C1668   1.491       .  S
O500        H519   0.991       .  S
O500        H523   0.990       .  S
O501        H515   0.990       .  S
O501        H522   0.990       .  S
O502        C506   1.284   1_554  A
O503        C506   1.288       .  A
O504        H514   0.990       .  S
O505        H518   0.990       .  S
C506       C1836   1.491       .  S
Zr529       O530   2.442       .  S
Zr529       O531   2.458       .  S
Zr529       O532   2.432       .  S
Zr529       O535   2.446       .  S
Zr529       O537   2.380       .  S
Zr529       O538   2.382       .  S
Zr529       O539   2.417       .  S
Zr529       O540   2.408       .  S
O530        H586   0.990       .  S
O530        H594   0.991       .  S
O531        C551   1.288       .  A
O532        C553   1.283       .  A
O533       Zr543   2.428       .  S
O533        C552   1.284       .  A
O534       Zr542   2.444       .  S
O534        C553   1.286       .  A
O535        C552   1.287       .  A
O536       Zr544   2.411       .  S
O536        C551   1.280       .  A
O537       Zr542   2.394       .  S
O537       Zr544   2.384       .  S
O538       Zr543   2.391       .  S
O538       Zr544   2.380       .  S
O538        H573   0.966       .  S
O539       Zr542   2.398       .  S
O539       Zr559   2.393       .  S
O539        H576   0.965       .  S
O540       Zr543   2.382       .  S
O540       Zr559   2.402       .  S
Zr541       O566   2.441       .  S
Zr541       O560   2.459       .  S
Zr541       O568   2.462       .  S
Zr541       O556   2.456       .  S
Zr541       O547   2.409       .  S
Zr541       O548   2.415       .  S
Zr541       O549   2.384       .  S
Zr541       O550   2.386       .  S
Zr542       O561   2.436       .  S
Zr542       O554   2.435       .  S
Zr542       O555   2.418       .  S
Zr542       O548   2.409       .  S
Zr542       O549   2.399       .  S
Zr543       O545   2.435       .  S
Zr543       O567   2.439       .  S
Zr543       O569   2.399       .  S
Zr543       O547   2.395       .  S
Zr543       O550   2.398       .  S
Zr544       O570   2.436       .  S
Zr544       O571   2.436       .  S
Zr544       O546   2.438       .  S
Zr544       O547   2.393       .  S
Zr544       O548   2.386       .  S
O545        H582   0.990       .  S
O546        H577   0.990       .  S
O546        H591   0.990       .  S
O548        H574   0.965       .  S
O549       Zr559   2.373       .  S
O550       Zr559   2.368       .  S
O550        H575   0.966       .  S
C551       C1513   1.490       .  S
C552       C1428   1.492       .  S
C553       C1476   1.487       .  S
O554        H590   0.990       .  S
O555        C557   1.283       .  A
O556        C557   1.289       .  A
C557       C1441   1.485       .  S
O558       Zr559   2.437       .  S
O558        H587   0.990       .  S
Zr559       O562   2.437       .  S
Zr559       O563   2.438       .  S
Zr559       O564   2.429       .  S
O560        C565   1.288       .  A
O561        H578   0.990       .  S
O561        H593   0.990       .  S
O562        H579   0.990       .  S
O563        H583   0.990       .  S
O563        H592   0.990       .  S
O564        C565   1.284       .  A
C565       C1908   1.499       .  S
O566        H585   0.990       .  S
O566        H589   0.990       .  S
O567        H581   0.990       .  S
O567        H588   0.990       .  S
O568        C572   1.290       .  A
O569        C572   1.279       .  A
O570        H580   0.990       .  S
O571        H584   0.990       .  S
C572       C1489   1.477       .  S
Zr595       O596   2.440       .  S
Zr595       O597   2.455       .  S
Zr595       O598   2.414   1_455  S
Zr595       O601   2.440       .  S
Zr595       O603   2.375   1_455  S
Zr595       O604   2.374       .  S
Zr595       O605   2.416   1_455  S
Zr595       O606   2.406       .  S
O596        H652   0.990       .  S
O596        H660   0.990       .  S
O597        C617   1.289   1_455  A
O598        C619   1.281       .  A
O599       Zr609   2.411       .  S
O599        C618   1.281       .  A
O600       Zr608   2.455       .  S
O600        C619   1.288       .  A
O601        C618   1.287       .  A
O602       Zr610   2.416       .  S
O602        C617   1.281       .  A
O603       Zr608   2.390       .  S
O603       Zr610   2.376       .  S
O604       Zr609   2.387       .  S
O604       Zr610   2.374   1_455  S
O604        H639   0.965       .  S
O605       Zr608   2.397       .  S
O605       Zr625   2.405       .  S
O605        H642   0.966       .  S
O606       Zr609   2.382       .  S
O606       Zr625   2.402   1_455  S
Zr607       O632   2.438       .  S
Zr607       O626   2.448       .  S
Zr607       O634   2.475       .  S
Zr607       O622   2.449       .  S
Zr607       O613   2.403       .  S
Zr607       O614   2.416       .  S
Zr607       O615   2.389       .  S
Zr607       O616   2.382       .  S
Zr608       O627   2.435       .  S
Zr608       O620   2.434       .  S
Zr608       O621   2.429       .  S
Zr608       O614   2.413       .  S
Zr608       O615   2.392       .  S
Zr609       O611   2.436       .  S
Zr609       O633   2.435       .  S
Zr609       O635   2.400   1_455  S
Zr609       O613   2.386   1_455  S
Zr609       O616   2.394   1_455  S
Zr610       O636   2.436       .  S
Zr610       O637   2.435       .  S
Zr610       O612   2.437       .  S
Zr610       O613   2.395       .  S
Zr610       O614   2.385       .  S
O611        H648   0.990       .  S
O612        H643   0.990       .  S
O612        H657   0.990       .  S
O614        H640   0.965       .  S
O615       Zr625   2.373       .  S
O616       Zr625   2.371       .  S
O616        H641   0.966       .  S
C617       C1393   1.491       .  S
C618       C1452   1.482       .  S
C619       C1345   1.481       .  S
O620        H656   0.990       .  S
O621        C623   1.286       .  A
O622        C623   1.288       .  A
C623       C1417   1.487       .  S
O624       Zr625   2.440   1_455  S
O624        H653   0.990       .  S
Zr625       O628   2.437       .  S
Zr625       O629   2.441   1_655  S
Zr625       O630   2.445       .  S
O626        C631   1.288       .  A
O627        H644   0.990       .  S
O627        H659   0.990       .  S
O628        H645   0.990       .  S
O629        H649   0.990       .  S
O629        H658   0.990       .  S
O630        C631   1.287       .  A
C631       C1788   1.500       .  S
O632        H651   0.990       .  S
O632        H655   0.990       .  S
O633        H647   0.990       .  S
O633        H654   0.990       .  S
O634        C638   1.292       .  A
O635        C638   1.279       .  A
O636        H646   0.990       .  S
O637        H650   0.990       .  S
C638       C1380   1.479       .  S
Zr661       O662   2.444   1_455  S
Zr661       O663   2.487   1_455  S
Zr661       O664   2.452       .  S
Zr661       O667   2.442   1_455  S
Zr661       O669   2.385       .  S
Zr661       O670   2.382       .  S
Zr661       O671   2.430       .  S
Zr661       O672   2.417   1_455  S
O662        H718   0.990       .  S
O662        H726   0.991       .  S
O663        C683   1.291   1_655  A
O664        C685   1.286       .  A
O665       Zr675   2.429   1_655  S
O665        C684   1.284       .  A
O666       Zr674   2.468       .  S
O666        C685   1.291       .  A
O667        C684   1.285       .  A
O668       Zr676   2.394       .  S
O668        C683   1.276       .  A
O669       Zr674   2.405       .  S
O669       Zr676   2.396       .  S
O670       Zr675   2.393       .  S
O670       Zr676   2.384       .  S
O670        H705   0.966   1_455  S
O671       Zr674   2.399       .  S
O671       Zr691   2.397       .  S
O671        H708   0.963       .  S
O672       Zr675   2.379   1_655  S
O672       Zr691   2.407   1_655  S
Zr673       O698   2.441       .  S
Zr673       O692   2.426       .  S
Zr673       O700   2.473       .  S
Zr673       O688   2.452       .  S
Zr673       O679   2.397       .  S
Zr673       O680   2.413       .  S
Zr673       O681   2.391       .  S
Zr673       O682   2.385       .  S
Zr674       O693   2.439       .  S
Zr674       O686   2.435       .  S
Zr674       O687   2.439       .  S
Zr674       O680   2.413       .  S
Zr674       O681   2.406       .  S
Zr675       O677   2.436   1_455  S
Zr675       O699   2.438   1_455  S
Zr675       O701   2.406       .  S
Zr675       O679   2.396       .  S
Zr675       O682   2.395       .  S
Zr676       O702   2.435       .  S
Zr676       O703   2.437       .  S
Zr676       O678   2.438       .  S
Zr676       O679   2.389       .  S
Zr676       O680   2.378       .  S
O677        H714   0.990       .  S
O678        H709   0.990       .  S
O678        H723   0.990       .  S
O680        H706   0.965       .  S
O681       Zr691   2.372       .  S
O682       Zr691   2.369       .  S
O682        H707   0.966       .  S
C683       C1404   1.485       .  S
C684       C1260   1.482       .  S
C685       C1308   1.501       .  S
O686        H722   0.990       .  S
O687        C689   1.287       .  A
O688        C689   1.288       .  A
C689       C1284   1.485       .  S
O690       Zr691   2.439   1_655  S
O690        H719   0.990       .  S
Zr691       O694   2.437       .  S
Zr691       O695   2.438   1_455  S
Zr691       O696   2.453       .  S
O692        C697   1.283       .  A
O693        H710   0.990       .  S
O693        H725   0.990       .  S
O694        H711   0.990       .  S
O695        H715   0.990       .  S
O695        H724   0.990       .  S
O696        C697   1.287       .  A
C697       C2124   1.496       .  S
O698        H717   0.990       .  S
O698        H721   0.991       .  S
O699        H713   0.990       .  S
O699        H720   0.990       .  S
O700        C704   1.292       .  A
O701        C704   1.280       .  A
O702        H712   0.990       .  S
O703        H716   0.990       .  S
C704       C1321   1.489       .  S
Zr727       O728   2.443       .  S
Zr727       O729   2.464       .  S
Zr727       O730   2.458       .  S
Zr727       O733   2.448       .  S
Zr727       O735   2.387       .  S
Zr727       O736   2.388       .  S
Zr727       O737   2.417       .  S
Zr727       O738   2.402       .  S
O728        H784   0.990       .  S
O728        H792   0.991       .  S
O729        C749   1.288       .  A
O730        C751   1.287       .  A
O731       Zr741   2.432       .  S
O731        C750   1.285       .  A
O732       Zr740   2.419       .  S
O732        C751   1.283       .  A
O733        C750   1.287       .  A
O734       Zr742   2.418       .  S
O734        C749   1.281       .  A
O735       Zr740   2.405       .  S
O735       Zr742   2.379       .  S
O736       Zr741   2.398       .  S
O736       Zr742   2.381       .  S
O736        H771   0.966       .  S
O737       Zr740   2.402       .  S
O737       Zr757   2.398       .  S
O737        H774   0.965       .  S
O738       Zr741   2.393       .  S
O738       Zr757   2.391       .  S
Zr739       O764   2.442       .  S
Zr739       O758   2.453       .  S
Zr739       O766   2.427       .  S
Zr739       O754   2.453       .  S
Zr739       O745   2.401       .  S
Zr739       O746   2.417       .  S
Zr739       O747   2.375       .  S
Zr739       O748   2.383       .  S
Zr740       O759   2.436       .  S
Zr740       O752   2.434       .  S
Zr740       O753   2.431       .  S
Zr740       O746   2.398       .  S
Zr740       O747   2.399       .  S
Zr741       O743   2.436       .  S
Zr741       O765   2.441       .  S
Zr741       O767   2.447       .  S
Zr741       O745   2.383       .  S
Zr741       O748   2.395       .  S
Zr742       O768   2.435       .  S
Zr742       O769   2.435       .  S
Zr742       O744   2.436       .  S
Zr742       O745   2.383       .  S
Zr742       O746   2.399       .  S
O743        H780   0.990       .  S
O744        H775   0.990       .  S
O744        H789   0.990       .  S
O746        H772   0.965       .  S
O747       Zr757   2.380       .  S
O748       Zr757   2.385       .  S
O748        H773   0.965       .  S
C749       C1980   1.496       .  S
C750       C1249   1.479       .  S
C751       C1212   1.482       .  S
O752        H788   0.990       .  S
O753        C755   1.284       .  A
O754        C755   1.286       .  A
C755       C1273   1.485       .  S
O756       Zr757   2.438       .  S
O756        H785   0.991       .  S
Zr757       O760   2.438       .  S
Zr757       O761   2.439       .  S
Zr757       O762   2.416       .  S
O758        C763   1.286       .  A
O759        H776   0.990       .  S
O759        H791   0.990       .  S
O760        H777   0.990       .  S
O761        H781   0.990       .  S
O761        H790   0.990       .  S
O762        C763   1.280       .  A
C763       C1524   1.489       .  S
O764        H783   0.990       .  S
O764        H787   0.990       .  S
O765        H779   0.990       .  S
O765        H786   0.990       .  S
O766        C770   1.284       .  A
O767        C770   1.288       .  A
O768        H778   0.990       .  S
O769        H782   0.990       .  S
C770       C1225   1.478       .  S
Zr793       O794   2.440       .  S
Zr793       O795   2.433       .  S
Zr793       O796   2.469       .  S
Zr793       O799   2.436       .  S
Zr793       O801   2.378       .  S
Zr793       O802   2.396       .  S
Zr793       O803   2.404       .  S
Zr793       O804   2.399       .  S
O794        H850   0.990       .  S
O794        H858   0.990       .  S
O795        C815   1.283       .  A
O796        C817   1.288       .  A
O797       Zr807   2.446   1_554  S
O797        C816   1.289       .  A
O798       Zr806   2.397   1_455  S
O798        C817   1.277       .  A
O799        C816   1.287       .  A
O800       Zr808   2.441       .  S
O800        C815   1.285       .  A
O801       Zr806   2.396   1_455  S
O801       Zr808   2.372       .  S
O802       Zr807   2.397   1_554  S
O802       Zr808   2.378       .  S
O802        H837   0.966       .  S
O803       Zr806   2.394   1_455  S
O803       Zr823   2.397       .  S
O803        H840   0.966       .  S
O804       Zr807   2.396   1_554  S
O804       Zr823   2.382       .  S
Zr805       O830   2.443   1_554  S
Zr805       O824   2.466   1_654  S
Zr805       O832   2.423   1_654  S
Zr805       O820   2.464       .  S
Zr805       O811   2.415   1_654  S
Zr805       O812   2.414       .  S
Zr805       O813   2.376   1_655  S
Zr805       O814   2.386   1_655  S
Zr806       O825   2.435       .  S
Zr806       O818   2.437       .  S
Zr806       O819   2.405       .  S
Zr806       O812   2.392       .  S
Zr806       O813   2.395   1_655  S
Zr807       O809   2.435       .  S
Zr807       O831   2.437       .  S
Zr807       O833   2.463       .  S
Zr807       O811   2.388       .  S
Zr807       O814   2.395   1_556  S
Zr808       O834   2.436   1_554  S
Zr808       O835   2.435   1_454  S
Zr808       O810   2.437   1_455  S
Zr808       O811   2.399   1_554  S
Zr808       O812   2.406   1_455  S
O809        H846   0.990       .  S
O810        H841   0.990       .  S
O810        H855   0.990       .  S
O812        H838   0.965       .  S
O813       Zr823   2.385       .  S
O814       Zr823   2.389       .  S
O814        H839   0.966   1_554  S
C815       C1609   1.491       .  S
C816       C1164   1.488       .  S
C817       C1356   1.472       .  S
O818        H854   0.990       .  S
O819        C821   1.279       .  A
O820        C821   1.288       .  A
C821       C1129   1.487       .  S
O822       Zr823   2.439       .  S
O822        H851   0.990       .  S
Zr823       O826   2.437       .  S
Zr823       O827   2.440       .  S
Zr823       O828   2.410       .  S
O824        C829   1.289   1_556  A
O825        H842   0.990       .  S
O825        H857   0.990       .  S
O826        H843   0.990       .  S
O827        H847   0.990       .  S
O827        H856   0.990       .  S
O828        C829   1.280       .  A
C829       C1177   1.493   1_554  S
O830        H849   0.991       .  S
O830        H853   0.990       .  S
O831        H845   0.990       .  S
O831        H852   0.990       .  S
O832        C836   1.283       .  A
O833        C836   1.290       .  A
O834        H844   0.991       .  S
O835        H848   0.990       .  S
C836       C1369   1.484       .  S
Zr859       O860   2.441       .  S
Zr859       O861   2.444       .  S
Zr859       O862   2.460       .  S
Zr859       O865   2.450       .  S
Zr859       O867   2.386       .  S
Zr859       O868   2.387       .  S
Zr859       O869   2.411       .  S
Zr859       O870   2.400       .  S
O860        H916   0.990       .  S
O860        H924   0.990       .  S
O861        C881   1.287       .  A
O862        C883   1.288       .  A
O863       Zr873   2.419       .  S
O863        C882   1.284       .  A
O864       Zr872   2.410       .  S
O864        C883   1.282       .  A
O865        C882   1.289       .  A
O866       Zr874   2.443       .  S
O866        C881   1.286       .  A
O867       Zr872   2.396       .  S
O867       Zr874   2.374       .  S
O868       Zr873   2.391       .  S
O868       Zr874   2.375       .  S
O868        H903   0.966       .  S
O869       Zr872   2.402       .  S
O869       Zr889   2.398       .  S
O869        H906   0.966       .  S
O870       Zr873   2.392       .  S
O870       Zr889   2.390       .  S
Zr871       O896   2.443   1_554  S
Zr871       O890   2.466       .  S
Zr871       O898   2.424   1_554  S
Zr871       O886   2.456       .  S
Zr871       O877   2.409       .  S
Zr871       O878   2.414       .  S
Zr871       O879   2.376       .  S
Zr871       O880   2.384       .  S
Zr872       O891   2.436       .  S
Zr872       O884   2.435       .  S
Zr872       O885   2.433       .  S
Zr872       O878   2.389       .  S
Zr872       O879   2.398       .  S
Zr873       O875   2.437   1_554  S
Zr873       O897   2.437   1_554  S
Zr873       O899   2.443   1_554  S
Zr873       O877   2.383       .  S
Zr873       O880   2.389       .  S
Zr874       O900   2.436   1_554  S
Zr874       O901   2.435       .  S
Zr874       O876   2.436       .  S
Zr874       O877   2.392       .  S
Zr874       O878   2.404       .  S
O875        H912   0.990       .  S
O876        H907   0.990       .  S
O876        H921   0.990       .  S
O878        H904   0.965       .  S
O879       Zr889   2.385       .  S
O880       Zr889   2.385       .  S
O880        H905   0.965       .  S
C881       C1537   1.494       .  S
C882       C1140   1.486       .  S
C883       C1465   1.481       .  S
O884        H920   0.990       .  S
O885        C887   1.284       .  A
O886        C887   1.287       .  A
C887       C1153   1.492       .  S
O888       Zr889   2.440       .  S
O888        H917   0.990       .  S
Zr889       O892   2.436       .  S
Zr889       O893   2.439       .  S
Zr889       O894   2.418       .  S
O890        C895   1.290       .  A
O891        H908   0.990       .  S
O891        H923   0.990       .  S
O892        H909   0.990       .  S
O893        H913   0.990       .  S
O893        H922   0.990       .  S
O894        C895   1.282       .  A
C895       C1105   1.494       .  S
O896        H915   0.991       .  S
O896        H919   0.990       .  S
O897        H911   0.990       .  S
O897        H918   0.990       .  S
O898        C902   1.284       .  A
O899        C902   1.286       .  A
O900        H910   0.990   1_556  S
O901        H914   0.990   1_554  S
C902       C1500   1.484       .  S
Zr925       O926   2.441       .  S
Zr925       O927   2.460       .  S
Zr925       O928   2.432       .  S
Zr925       O931   2.446       .  S
Zr925       O933   2.378       .  S
Zr925       O934   2.383       .  S
Zr925       O935   2.419       .  S
Zr925       O936   2.408       .  S
O926        H982   0.990       .  S
O926        H990   0.991       .  S
O927        C947   1.288       .  A
O928        C949   1.283   1_556  A
O929       Zr939   2.422       .  S
O929        C948   1.283       .  A
O930       Zr938   2.439       .  S
O930        C949   1.286   1_556  A
O931        C948   1.286       .  A
O932       Zr940   2.409       .  S
O932        C947   1.279       .  A
O933       Zr938   2.383       .  S
O933       Zr940   2.381       .  S
O934       Zr939   2.394       .  S
O934       Zr940   2.385       .  S
O934        H969   0.966       .  S
O935       Zr938   2.398       .  S
O935       Zr955   2.393       .  S
O935        H972   0.964       .  S
O936       Zr939   2.383       .  S
O936       Zr955   2.400       .  S
Zr937       O962   2.442       .  S
Zr937       O956   2.438       .  S
Zr937       O964   2.462       .  S
Zr937       O952   2.449       .  S
Zr937       O943   2.402       .  S
Zr937       O944   2.412       .  S
Zr937       O945   2.384       .  S
Zr937       O946   2.384       .  S
Zr938       O957   2.437       .  S
Zr938       O950   2.435       .  S
Zr938       O951   2.415       .  S
Zr938       O944   2.409       .  S
Zr938       O945   2.397       .  S
Zr939       O941   2.436       .  S
Zr939       O963   2.436       .  S
Zr939       O965   2.400       .  S
Zr939       O943   2.391       .  S
Zr939       O946   2.399       .  S
Zr940       O966   2.435       .  S
Zr940       O967   2.436       .  S
Zr940       O942   2.440       .  S
Zr940       O943   2.392       .  S
Zr940       O944   2.385       .  S
O941        H978   0.990       .  S
O942        H973   0.990       .  S
O942        H987   0.990       .  S
O944        H970   0.965       .  S
O945       Zr955   2.373       .  S
O946       Zr955   2.372       .  S
O946        H971   0.966       .  S
C947       C1116   1.490       .  S
C948       C1057   1.488       .  S
C949       C1201   1.484       .  S
O950        H986   0.990       .  S
O951        C953   1.282       .  A
O952        C953   1.287       .  A
C953       C1081   1.480       .  S
O954       Zr955   2.438       .  S
O954        H983   0.991       .  S
Zr955       O958   2.437       .  S
Zr955       O959   2.438       .  S
Zr955       O960   2.430       .  S
O956        C961   1.284       .  A
O957        H974   0.990       .  S
O957        H989   0.990       .  S
O958        H975   0.990       .  S
O959        H979   0.990       .  S
O959        H988   0.990       .  S
O960        C961   1.284       .  A
C961       C1729   1.490       .  S
O962        H981   0.990       .  S
O962        H985   0.991       .  S
O963        H977   0.990       .  S
O963        H984   0.990       .  S
O964        C968   1.289       .  A
O965        C968   1.278       .  A
O966        H976   0.990       .  S
O967        H980   0.991       .  S
C968       C1236   1.474       .  S
Zr991       O992   2.441       .  S
Zr991       O993   2.462       .  S
Zr991       O994   2.423       .  S
Zr991       O997   2.438       .  S
Zr991       O999   2.373   1_455  S
Zr991      O1000   2.381       .  S
Zr991      O1001   2.420   1_455  S
Zr991      O1002   2.407       .  S
O992       H1048   0.990       .  S
O992       H1056   0.990       .  S
O993       C1013   1.289       .  A
O994       C1015   1.282   1_456  A
O995      Zr1005   2.408       .  S
O995       C1014   1.280       .  A
O996      Zr1004   2.472       .  S
O996       C1015   1.290   1_556  A
O997       C1014   1.285       .  A
O998      Zr1006   2.413       .  S
O998       C1013   1.280   1_655  A
O999      Zr1004   2.390       .  S
O999      Zr1006   2.382       .  S
O1000     Zr1005   2.393       .  S
O1000     Zr1006   2.378   1_455  S
O1000      H1035   0.966       .  S
O1001     Zr1004   2.400       .  S
O1001     Zr1021   2.404   1_655  S
O1001      H1038   0.965       .  S
O1002     Zr1005   2.384       .  S
O1002     Zr1021   2.401       .  S
Zr1003     O1028   2.438       .  S
Zr1003     O1022   2.450       .  S
Zr1003     O1030   2.484       .  S
Zr1003     O1018   2.449       .  S
Zr1003     O1009   2.408       .  S
Zr1003     O1010   2.416       .  S
Zr1003     O1011   2.389       .  S
Zr1003     O1012   2.382       .  S
Zr1004     O1023   2.436       .  S
Zr1004     O1016   2.434       .  S
Zr1004     O1017   2.431       .  S
Zr1004     O1010   2.408       .  S
Zr1004     O1011   2.399       .  S
Zr1005     O1007   2.436       .  S
Zr1005     O1029   2.440       .  S
Zr1005     O1031   2.401       .  S
Zr1005     O1009   2.389   1_455  S
Zr1005     O1012   2.395   1_455  S
Zr1006     O1032   2.436   1_655  S
Zr1006     O1033   2.435       .  S
Zr1006     O1008   2.436       .  S
Zr1006     O1009   2.396       .  S
Zr1006     O1010   2.389       .  S
O1007      H1044   0.990       .  S
O1008      H1039   0.990       .  S
O1008      H1053   0.990       .  S
O1010      H1036   0.965       .  S
O1011     Zr1021   2.369   1_655  S
O1012     Zr1021   2.373   1_655  S
O1012      H1037   0.966   1_655  S
C1013      C1188   1.493       .  S
C1014      C1092   1.478       .  S
C1015      C1297   1.499       .  S
O1016      H1052   0.990       .  S
O1017      C1019   1.286       .  A
O1018      C1019   1.290       .  A
C1019      C1068   1.489       .  S
O1020     Zr1021   2.438       .  S
O1020      H1049   0.990       .  S
Zr1021     O1024   2.436   1_455  S
Zr1021     O1025   2.439       .  S
Zr1021     O1026   2.443   1_455  S
O1022      C1027   1.288       .  A
O1023      H1040   0.990       .  S
O1023      H1055   0.990       .  S
O1024      H1041   0.990       .  S
O1025      H1045   0.990       .  S
O1025      H1054   0.990       .  S
O1026      C1027   1.286       .  A
C1027      C1633   1.500       .  S
O1028      H1047   0.990       .  S
O1028      H1051   0.990       .  S
O1029      H1043   0.990       .  S
O1029      H1050   0.990       .  S
O1030      C1034   1.294       .  A
O1031      C1034   1.280   1_455  A
O1032      H1042   0.990   1_455  S
O1033      H1046   0.990       .  S
C1034      C1332   1.493       .  S
C1057      C1058   1.407       .  A
C1057      C1062   1.406       .  A
C1058      C1059   1.399       .  A
C1058      H1071   1.083       .  S
C1059      C1060   1.404       .  A
C1059      H1072   1.083       .  S
C1060      C1061   1.410       .  A
C1060      C1063   1.494       .  S
C1061      C1062   1.401       .  A
C1061      H1073   1.080       .  S
C1062      H1074   1.083       .  S
C1063      C1064   1.349       .  D
C1063      H1075   1.085       .  S
C1064      C1065   1.489       .  S
C1064      H1076   1.084       .  S
C1065      C1066   1.402       .  A
C1065      C1070   1.409       .  A
C1066      C1067   1.397       .  A
C1066      H1077   1.084       .  S
C1067      C1068   1.408       .  A
C1067      H1078   1.083       .  S
C1068      C1069   1.408       .  A
C1069      C1070   1.403       .  A
C1069      H1079   1.083       .  S
C1070      H1080   1.082       .  S
C1081      C1082   1.408       .  A
C1081      C1086   1.405       .  A
C1082      C1083   1.396       .  A
C1082      H1095   1.083       .  S
C1083      C1084   1.400       .  A
C1083      H1096   1.084       .  S
C1084      C1085   1.407       .  A
C1084      C1087   1.480       .  S
C1085      C1086   1.396       .  A
C1085      H1097   1.082       .  S
C1086      H1098   1.083       .  S
C1087      C1088   1.344       .  D
C1087      H1099   1.085       .  S
C1088      C1089   1.479       .  S
C1088      H1100   1.086       .  S
C1089      C1090   1.400       .  A
C1089      C1094   1.408       .  A
C1090      C1091   1.392       .  A
C1090      H1101   1.084       .  S
C1091      C1092   1.406       .  A
C1091      H1102   1.083       .  S
C1092      C1093   1.405       .  A
C1093      C1094   1.399       .  A
C1093      H1103   1.083       .  S
C1094      H1104   1.082       .  S
C1105      C1106   1.406   1_554  A
C1105      C1110   1.410       .  A
C1106      C1107   1.404       .  A
C1106      H1119   1.083       .  S
C1107      C1108   1.407       .  A
C1107      H1120   1.083       .  S
C1108      C1109   1.408   1_556  A
C1108      C1111   1.499       .  S
C1109      C1110   1.401       .  A
C1109      H1121   1.080       .  S
C1110      H1122   1.083       .  S
C1111      C1112   1.355       .  D
C1111      H1123   1.083       .  S
C1112      C1113   1.498       .  S
C1112      H1124   1.083       .  S
C1113      C1114   1.408       .  A
C1113      C1118   1.408       .  A
C1114      C1115   1.402       .  A
C1114      H1125   1.083       .  S
C1115      C1116   1.405       .  A
C1115      H1126   1.083       .  S
C1116      C1117   1.409       .  A
C1117      C1118   1.400       .  A
C1117      H1127   1.083       .  S
C1118      H1128   1.080       .  S
C1129      C1130   1.405       .  A
C1129      C1134   1.409       .  A
C1130      C1131   1.401       .  A
C1130      H1143   1.083   1_554  S
C1131      C1132   1.406       .  A
C1131      H1144   1.083   1_554  S
C1132      C1133   1.406       .  A
C1132      C1135   1.490       .  S
C1133      C1134   1.397       .  A
C1133      H1145   1.081       .  S
C1134      H1146   1.083       .  S
C1135      C1136   1.352       .  D
C1135      H1147   1.085       .  S
C1136      C1137   1.490       .  S
C1136      H1148   1.084       .  S
C1137      C1138   1.406       .  A
C1137      C1142   1.406       .  A
C1138      C1139   1.402       .  A
C1138      H1149   1.083       .  S
C1139      C1140   1.406       .  A
C1139      H1150   1.083       .  S
C1140      C1141   1.408       .  A
C1141      C1142   1.397       .  A
C1141      H1151   1.083       .  S
C1142      H1152   1.081       .  S
C1153      C1154   1.408       .  A
C1153      C1158   1.408       .  A
C1154      C1155   1.401       .  A
C1154      H1167   1.083       .  S
C1155      C1156   1.408       .  A
C1155      H1168   1.082       .  S
C1156      C1157   1.404       .  A
C1156      C1159   1.493       .  S
C1157      C1158   1.402       .  A
C1157      H1169   1.083       .  S
C1158      H1170   1.083       .  S
C1159      C1160   1.350       .  D
C1159      H1171   1.085       .  S
C1160      C1161   1.490       .  S
C1160      H1172   1.085       .  S
C1161      C1162   1.403       .  A
C1161      C1166   1.409       .  A
C1162      C1163   1.398       .  A
C1162      H1173   1.083       .  S
C1163      C1164   1.407       .  A
C1163      H1174   1.083       .  S
C1164      C1165   1.407       .  A
C1165      C1166   1.403       .  A
C1165      H1175   1.083       .  S
C1166      H1176   1.081       .  S
C1177      C1178   1.406   1_455  A
C1177      C1182   1.409   1_556  A
C1178      C1179   1.405       .  A
C1178      H1191   1.083       .  S
C1179      C1180   1.408   1_655  A
C1179      H1192   1.083       .  S
C1180      C1181   1.408   1_556  A
C1180      C1183   1.500       .  S
C1181      C1182   1.399       .  A
C1181      H1193   1.080       .  S
C1182      H1194   1.083       .  S
C1183      C1184   1.355       .  D
C1183      H1195   1.084   1_455  S
C1184      C1185   1.498       .  S
C1184      H1196   1.083       .  S
C1185      C1186   1.408       .  A
C1185      C1190   1.408       .  A
C1186      C1187   1.403       .  A
C1186      H1197   1.083       .  S
C1187      C1188   1.405       .  A
C1187      H1198   1.083       .  S
C1188      C1189   1.410       .  A
C1189      C1190   1.401       .  A
C1189      H1199   1.083   1_455  S
C1190      H1200   1.080   1_455  S
C1201      C1202   1.404       .  A
C1201      C1206   1.410       .  A
C1202      C1203   1.395       .  A
C1202      H1215   1.083       .  S
C1203      C1204   1.403       .  A
C1203      H1216   1.083       .  S
C1204      C1205   1.406       .  A
C1204      C1207   1.484       .  S
C1205      C1206   1.402       .  A
C1205      H1217   1.082       .  S
C1206      H1218   1.083       .  S
C1207      C1208   1.350       .  D
C1207      H1219   1.085       .  S
C1208      C1209   1.490       .  S
C1208      H1220   1.085       .  S
C1209      C1210   1.406       .  A
C1209      C1214   1.407       .  A
C1210      C1211   1.404       .  A
C1210      H1221   1.083       .  S
C1211      C1212   1.407       .  A
C1211      H1222   1.083       .  S
C1212      C1213   1.404       .  A
C1213      C1214   1.394       .  A
C1213      H1223   1.083       .  S
C1214      H1224   1.082       .  S
C1225      C1226   1.404       .  A
C1225      C1230   1.404       .  A
C1226      C1227   1.396       .  A
C1226      H1239   1.083       .  S
C1227      C1228   1.402       .  A
C1227      H1240   1.083       .  S
C1228      C1229   1.410       .  A
C1228      C1231   1.487       .  S
C1229      C1230   1.402       .  A
C1229      H1241   1.081       .  S
C1230      H1242   1.083       .  S
C1231      C1232   1.346       .  D
C1231      H1243   1.086       .  S
C1232      C1233   1.485       .  S
C1232      H1244   1.085       .  S
C1233      C1234   1.401       .  A
C1233      C1238   1.409       .  A
C1234      C1235   1.396       .  A
C1234      H1245   1.084       .  S
C1235      C1236   1.405       .  A
C1235      H1246   1.084       .  S
C1236      C1237   1.403       .  A
C1237      C1238   1.402       .  A
C1237      H1247   1.083       .  S
C1238      H1248   1.082       .  S
C1249      C1250   1.405       .  A
C1249      C1254   1.405       .  A
C1250      C1251   1.398       .  A
C1250      H1263   1.083       .  S
C1251      C1252   1.403       .  A
C1251      H1264   1.083       .  S
C1252      C1253   1.407       .  A
C1252      C1255   1.485       .  S
C1253      C1254   1.401       .  A
C1253      H1265   1.083       .  S
C1254      H1266   1.083       .  S
C1255      C1256   1.346       .  D
C1255      H1267   1.086       .  S
C1256      C1257   1.485       .  S
C1256      H1268   1.087       .  S
C1257      C1258   1.402       .  A
C1257      C1262   1.408       .  A
C1258      C1259   1.397       .  A
C1258      H1269   1.083       .  S
C1259      C1260   1.406       .  A
C1259      H1270   1.083       .  S
C1260      C1261   1.406       .  A
C1261      C1262   1.402       .  A
C1261      H1271   1.083       .  S
C1262      H1272   1.083       .  S
C1273      C1274   1.406       .  A
C1273      C1278   1.407       .  A
C1274      C1275   1.402       .  A
C1274      H1287   1.083       .  S
C1275      C1276   1.404       .  A
C1275      H1288   1.083       .  S
C1276      C1277   1.405       .  A
C1276      C1279   1.487       .  S
C1277      C1278   1.400       .  A
C1277      H1289   1.083       .  S
C1278      H1290   1.083       .  S
C1279      C1280   1.348       .  D
C1279      H1291   1.087       .  S
C1280      C1281   1.485       .  S
C1280      H1292   1.086       .  S
C1281      C1282   1.404       .  A
C1281      C1286   1.405       .  A
C1282      C1283   1.402       .  A
C1282      H1293   1.083       .  S
C1283      C1284   1.407       .  A
C1283      H1294   1.083       .  S
C1284      C1285   1.407       .  A
C1285      C1286   1.400       .  A
C1285      H1295   1.083       .  S
C1286      H1296   1.083       .  S
C1297      C1298   1.409   1_655  A
C1297      C1302   1.410       .  A
C1298      C1299   1.394       .  A
C1298      H1311   1.082       .  S
C1299      C1300   1.401       .  A
C1299      H1312   1.084       .  S
C1300      C1301   1.414   1_455  A
C1300      C1303   1.501       .  S
C1301      C1302   1.414       .  A
C1301      H1313   1.081       .  S
C1302      H1314   1.083       .  S
C1303      C1304   1.350       .  D
C1303      H1315   1.084       .  S
C1304      C1305   1.506       .  S
C1304      H1316   1.085   1_455  S
C1305      C1306   1.404   1_455  A
C1305      C1310   1.414       .  A
C1306      C1307   1.403       .  A
C1306      H1317   1.083       .  S
C1307      C1308   1.411   1_655  A
C1307      H1318   1.082       .  S
C1308      C1309   1.408       .  A
C1309      C1310   1.408       .  A
C1309      H1319   1.083       .  S
C1310      H1320   1.080       .  S
C1321      C1322   1.403       .  A
C1321      C1326   1.409       .  A
C1322      C1323   1.407       .  A
C1322      H1335   1.083       .  S
C1323      C1324   1.412       .  A
C1323      H1336   1.083       .  S
C1324      C1325   1.407       .  A
C1324      C1327   1.502       .  S
C1325      C1326   1.399       .  A
C1325      H1337   1.079   1_455  S
C1326      H1338   1.083   1_455  S
C1327      C1328   1.359       .  D
C1327      H1339   1.084       .  S
C1328      C1329   1.500       .  S
C1328      H1340   1.082   1_455  S
C1329      C1330   1.411   1_455  A
C1329      C1334   1.405       .  A
C1330      C1331   1.408       .  A
C1330      H1341   1.083       .  S
C1331      C1332   1.405       .  A
C1331      H1342   1.083       .  S
C1332      C1333   1.411   1_655  A
C1333      C1334   1.397       .  A
C1333      H1343   1.083       .  S
C1334      H1344   1.081       .  S
C1345      C1346   1.406       .  A
C1345      C1350   1.405       .  A
C1346      C1347   1.395       .  A
C1346      H1359   1.084   1_655  S
C1347      C1348   1.401       .  A
C1347      H1360   1.084   1_655  S
C1348      C1349   1.409       .  A
C1348      C1351   1.485       .  S
C1349      C1350   1.404       .  A
C1349      H1361   1.082       .  S
C1350      H1362   1.083       .  S
C1351      C1352   1.347       .  D
C1351      H1363   1.086   1_655  S
C1352      C1353   1.487   1_655  S
C1352      H1364   1.086       .  S
C1353      C1354   1.402   1_455  A
C1353      C1358   1.410       .  A
C1354      C1355   1.398   1_655  A
C1354      H1365   1.083       .  S
C1355      C1356   1.405       .  A
C1355      H1366   1.083   1_455  S
C1356      C1357   1.402       .  A
C1357      C1358   1.401       .  A
C1357      H1367   1.083       .  S
C1358      H1368   1.082       .  S
C1369      C1370   1.405       .  A
C1369      C1374   1.404       .  A
C1370      C1371   1.399       .  A
C1370      H1383   1.083       .  S
C1371      C1372   1.405       .  A
C1371      H1384   1.083   1_455  S
C1372      C1373   1.413       .  A
C1372      C1375   1.500   1_455  S
C1373      C1374   1.406       .  A
C1373      H1385   1.079       .  S
C1374      H1386   1.083       .  S
C1375      C1376   1.351   1_655  D
C1375      H1387   1.086       .  S
C1376      C1377   1.495   1_455  S
C1376      H1388   1.083       .  S
C1377      C1378   1.403   1_655  A
C1377      C1382   1.412       .  A
C1378      C1379   1.398   1_455  A
C1378      H1389   1.083       .  S
C1379      C1380   1.405       .  A
C1379      H1390   1.084   1_655  S
C1380      C1381   1.403       .  A
C1381      C1382   1.406       .  A
C1381      H1391   1.083       .  S
C1382      H1392   1.082       .  S
C1393      C1394   1.405   1_655  A
C1393      C1398   1.410       .  A
C1394      C1395   1.402       .  A
C1394      H1407   1.083       .  S
C1395      C1396   1.407   1_455  A
C1395      H1408   1.083       .  S
C1396      C1397   1.408       .  A
C1396      C1399   1.498   1_655  S
C1397      C1398   1.401       .  A
C1397      H1409   1.081       .  S
C1398      H1410   1.083       .  S
C1399      C1400   1.354   1_455  D
C1399      H1411   1.083       .  S
C1400      C1401   1.501       .  S
C1400      H1412   1.084       .  S
C1401      C1402   1.409       .  A
C1401      C1406   1.409   1_655  A
C1402      C1403   1.406       .  A
C1402      H1413   1.083       .  S
C1403      C1404   1.404   1_655  A
C1403      H1414   1.083       .  S
C1404      C1405   1.406       .  A
C1405      C1406   1.400       .  A
C1405      H1415   1.084       .  S
C1406      H1416   1.080       .  S
C1417      C1418   1.407       .  A
C1417      C1422   1.407       .  A
C1418      C1419   1.398       .  A
C1418      H1431   1.083       .  S
C1419      C1420   1.404       .  A
C1419      H1432   1.083       .  S
C1420      C1421   1.409       .  A
C1420      C1423   1.491       .  S
C1421      C1422   1.401       .  A
C1421      H1433   1.081       .  S
C1422      H1434   1.083       .  S
C1423      C1424   1.349       .  D
C1423      H1435   1.085       .  S
C1424      C1425   1.490       .  S
C1424      H1436   1.084       .  S
C1425      C1426   1.402       .  A
C1425      C1430   1.409       .  A
C1426      C1427   1.399       .  A
C1426      H1437   1.083       .  S
C1427      C1428   1.409       .  A
C1427      H1438   1.083       .  S
C1428      C1429   1.408       .  A
C1429      C1430   1.403       .  A
C1429      H1439   1.083       .  S
C1430      H1440   1.082       .  S
C1441      C1442   1.405       .  A
C1441      C1446   1.407       .  A
C1442      C1443   1.399       .  A
C1442      H1455   1.083       .  S
C1443      C1444   1.405       .  A
C1443      H1456   1.083       .  S
C1444      C1445   1.409       .  A
C1444      C1447   1.491       .  S
C1445      C1446   1.397       .  A
C1445      H1457   1.079       .  S
C1446      H1458   1.083       .  S
C1447      C1448   1.350       .  D
C1447      H1459   1.085       .  S
C1448      C1449   1.486       .  S
C1448      H1460   1.082       .  S
C1449      C1450   1.404       .  A
C1449      C1454   1.406       .  A
C1450      C1451   1.398       .  A
C1450      H1461   1.083       .  S
C1451      C1452   1.404       .  A
C1451      H1462   1.083       .  S
C1452      C1453   1.408       .  A
C1453      C1454   1.397       .  A
C1453      H1463   1.083       .  S
C1454      H1464   1.082       .  S
C1465      C1466   1.404       .  A
C1465      C1470   1.406       .  A
C1466      C1467   1.403       .  A
C1466      H1479   1.083       .  S
C1467      C1468   1.407       .  A
C1467      H1480   1.083       .  S
C1468      C1469   1.405       .  A
C1468      C1471   1.489       .  S
C1469      C1470   1.395       .  A
C1469      H1481   1.081       .  S
C1470      H1482   1.083       .  S
C1471      C1472   1.352       .  D
C1471      H1483   1.084       .  S
C1472      C1473   1.489       .  S
C1472      H1484   1.085       .  S
C1473      C1474   1.406       .  A
C1473      C1478   1.405       .  A
C1474      C1475   1.402       .  A
C1474      H1485   1.083       .  S
C1475      C1476   1.406       .  A
C1475      H1486   1.083       .  S
C1476      C1477   1.408       .  A
C1477      C1478   1.396       .  A
C1477      H1487   1.083       .  S
C1478      H1488   1.081       .  S
C1489      C1490   1.402       .  A
C1489      C1494   1.407       .  A
C1490      C1491   1.402       .  A
C1490      H1503   1.083       .  S
C1491      C1492   1.407       .  A
C1491      H1504   1.083       .  S
C1492      C1493   1.405       .  A
C1492      C1495   1.488       .  S
C1493      C1494   1.396       .  A
C1493      H1505   1.081       .  S
C1494      H1506   1.084       .  S
C1495      C1496   1.352       .  D
C1495      H1507   1.085       .  S
C1496      C1497   1.488       .  S
C1496      H1508   1.085       .  S
C1497      C1498   1.406       .  A
C1497      C1502   1.406       .  A
C1498      C1499   1.401       .  A
C1498      H1509   1.083       .  S
C1499      C1500   1.406       .  A
C1499      H1510   1.083       .  S
C1500      C1501   1.407       .  A
C1501      C1502   1.396       .  A
C1501      H1511   1.083       .  S
C1502      H1512   1.081       .  S
C1513      C1514   1.406       .  A
C1513      C1518   1.409       .  A
C1514      C1515   1.403       .  A
C1514      H1527   1.083       .  S
C1515      C1516   1.407       .  A
C1515      H1528   1.083       .  S
C1516      C1517   1.406       .  A
C1516      C1519   1.493       .  S
C1517      C1518   1.398       .  A
C1517      H1529   1.081       .  S
C1518      H1530   1.083       .  S
C1519      C1520   1.354       .  D
C1519      H1531   1.083       .  S
C1520      C1521   1.495       .  S
C1520      H1532   1.084       .  S
C1521      C1522   1.407       .  A
C1521      C1526   1.408       .  A
C1522      C1523   1.402       .  A
C1522      H1533   1.083       .  S
C1523      C1524   1.406       .  A
C1523      H1534   1.083       .  S
C1524      C1525   1.408       .  A
C1525      C1526   1.399       .  A
C1525      H1535   1.083       .  S
C1526      H1536   1.080       .  S
C1537      C1538   1.408       .  A
C1537      C1542   1.409       .  A
C1538      C1539   1.402       .  A
C1538      H1551   1.083       .  S
C1539      C1540   1.405       .  A
C1539      H1552   1.083       .  S
C1540      C1541   1.409       .  A
C1540      C1543   1.497       .  S
C1541      C1542   1.405       .  A
C1541      H1553   1.082       .  S
C1542      H1554   1.083       .  S
C1543      C1544   1.352       .  D
C1543      H1555   1.085       .  S
C1544      C1545   1.498       .  S
C1544      H1556   1.085       .  S
C1545      C1546   1.406       .  A
C1545      C1550   1.408       .  A
C1546      C1547   1.404       .  A
C1546      H1557   1.083       .  S
C1547      C1548   1.407       .  A
C1547      H1558   1.083       .  S
C1548      C1549   1.409       .  A
C1549      C1550   1.403       .  A
C1549      H1559   1.083       .  S
C1550      H1560   1.082       .  S
C1561      C1562   1.407       .  A
C1561      C1566   1.404       .  A
C1562      C1563   1.395       .  A
C1562      H1575   1.083       .  S
C1563      C1564   1.401       .  A
C1563      H1576   1.084       .  S
C1564      C1565   1.409       .  A
C1564      C1567   1.484       .  S
C1565      C1566   1.401       .  A
C1565      H1577   1.082       .  S
C1566      H1578   1.083       .  S
C1567      C1568   1.343       .  D
C1567      H1579   1.087       .  S
C1568      C1569   1.480   1_655  S
C1568      H1580   1.086       .  S
C1569      C1570   1.399       .  A
C1569      C1574   1.408       .  A
C1570      C1571   1.394       .  A
C1570      H1581   1.084       .  S
C1571      C1572   1.406       .  A
C1571      H1582   1.083       .  S
C1572      C1573   1.405       .  A
C1573      C1574   1.404       .  A
C1573      H1583   1.083       .  S
C1574      H1584   1.083       .  S
C1585      C1586   1.406       .  A
C1585      C1590   1.407       .  A
C1586      C1587   1.400       .  A
C1586      H1599   1.083       .  S
C1587      C1588   1.403       .  A
C1587      H1600   1.083       .  S
C1588      C1589   1.404       .  A
C1588      C1591   1.480       .  S
C1589      C1590   1.395       .  A
C1589      H1601   1.083       .  S
C1590      H1602   1.083       .  S
C1591      C1592   1.345       .  D
C1591      H1603   1.086       .  S
C1592      C1593   1.480       .  S
C1592      H1604   1.087       .  S
C1593      C1594   1.403       .  A
C1593      C1598   1.406       .  A
C1594      C1595   1.398       .  A
C1594      H1605   1.083       .  S
C1595      C1596   1.404       .  A
C1595      H1606   1.083       .  S
C1596      C1597   1.404       .  A
C1597      C1598   1.397       .  A
C1597      H1607   1.083       .  S
C1598      H1608   1.082       .  S
C1609      C1610   1.408       .  A
C1609      C1614   1.406       .  A
C1610      C1611   1.401       .  A
C1610      H1623   1.083       .  S
C1611      C1612   1.405       .  A
C1611      H1624   1.083       .  S
C1612      C1613   1.411       .  A
C1612      C1615   1.498       .  S
C1613      C1614   1.401       .  A
C1613      H1625   1.079       .  S
C1614      H1626   1.083       .  S
C1615      C1616   1.350       .  D
C1615      H1627   1.084       .  S
C1616      C1617   1.493       .  S
C1616      H1628   1.082       .  S
C1617      C1618   1.403       .  A
C1617      C1622   1.411       .  A
C1618      C1619   1.396       .  A
C1618      H1629   1.084       .  S
C1619      C1620   1.408       .  A
C1619      H1630   1.083       .  S
C1620      C1621   1.407       .  A
C1621      C1622   1.405       .  A
C1621      H1631   1.083       .  S
C1622      H1632   1.081       .  S
C1633      C1634   1.409       .  A
C1633      C1638   1.410       .  A
C1634      C1635   1.406       .  A
C1634      H1647   1.083       .  S
C1635      C1636   1.406       .  A
C1635      H1648   1.083       .  S
C1636      C1637   1.408       .  A
C1636      C1639   1.499       .  S
C1637      C1638   1.405       .  A
C1637      H1649   1.082       .  S
C1638      H1650   1.083       .  S
C1639      C1640   1.352       .  D
C1639      H1651   1.086       .  S
C1640      C1641   1.498       .  S
C1640      H1652   1.086       .  S
C1641      C1642   1.404       .  A
C1641      C1646   1.409       .  A
C1642      C1643   1.402       .  A
C1642      H1653   1.083       .  S
C1643      C1644   1.410       .  A
C1643      H1654   1.083       .  S
C1644      C1645   1.410       .  A
C1645      C1646   1.409       .  A
C1645      H1655   1.083       .  S
C1646      H1656   1.082       .  S
C1657      C1658   1.406   1_556  A
C1657      C1662   1.409       .  A
C1658      C1659   1.407       .  A
C1658      H1671   1.083       .  S
C1659      C1660   1.408       .  A
C1659      H1672   1.083       .  S
C1660      C1661   1.404   1_554  A
C1660      C1663   1.493       .  S
C1661      C1662   1.395       .  A
C1661      H1673   1.081       .  S
C1662      H1674   1.083       .  S
C1663      C1664   1.354   1_565  D
C1663      H1675   1.083       .  S
C1664      C1665   1.494       .  S
C1664      H1676   1.085       .  S
C1665      C1666   1.407       .  A
C1665      C1670   1.406       .  A
C1666      C1667   1.402       .  A
C1666      H1677   1.083       .  S
C1667      C1668   1.405       .  A
C1667      H1678   1.083       .  S
C1668      C1669   1.410       .  A
C1669      C1670   1.399       .  A
C1669      H1679   1.083       .  S
C1670      H1680   1.080       .  S
C1681      C1682   1.407       .  A
C1681      C1686   1.408       .  A
C1682      C1683   1.401       .  A
C1682      H1695   1.083   1_556  S
C1683      C1684   1.406       .  A
C1683      H1696   1.083   1_556  S
C1684      C1685   1.410       .  A
C1684      C1687   1.497       .  S
C1685      C1686   1.402       .  A
C1685      H1697   1.080       .  S
C1686      H1698   1.083       .  S
C1687      C1688   1.353       .  D
C1687      H1699   1.082       .  S
C1688      C1689   1.498       .  S
C1688      H1700   1.084       .  S
C1689      C1690   1.406       .  A
C1689      C1694   1.410       .  A
C1690      C1691   1.400       .  A
C1690      H1701   1.083       .  S
C1691      C1692   1.405       .  A
C1691      H1702   1.083       .  S
C1692      C1693   1.408       .  A
C1693      C1694   1.402       .  A
C1693      H1703   1.083       .  S
C1694      H1704   1.079       .  S
C1705      C1706   1.408       .  A
C1705      C1710   1.406       .  A
C1706      C1707   1.396       .  A
C1706      H1719   1.083   1_556  S
C1707      C1708   1.400       .  A
C1707      H1720   1.083   1_556  S
C1708      C1709   1.408       .  A
C1708      C1711   1.483   1_655  S
C1709      C1710   1.400       .  A
C1709      H1721   1.082       .  S
C1710      H1722   1.083       .  S
C1711      C1712   1.346       .  D
C1711      H1723   1.085       .  S
C1712      C1713   1.487       .  S
C1712      H1724   1.086       .  S
C1713      C1714   1.402       .  A
C1713      C1718   1.409       .  A
C1714      C1715   1.397       .  A
C1714      H1725   1.084       .  S
C1715      C1716   1.406       .  A
C1715      H1726   1.083       .  S
C1716      C1717   1.406       .  A
C1717      C1718   1.401       .  A
C1717      H1727   1.083   1_556  S
C1718      H1728   1.081   1_556  S
C1729      C1730   1.408       .  A
C1729      C1734   1.406       .  A
C1730      C1731   1.402       .  A
C1730      H1743   1.083       .  S
C1731      C1732   1.406       .  A
C1731      H1744   1.083       .  S
C1732      C1733   1.409       .  A
C1732      C1735   1.497       .  S
C1733      C1734   1.400       .  A
C1733      H1745   1.081       .  S
C1734      H1746   1.083       .  S
C1735      C1736   1.350       .  D
C1735      H1747   1.086       .  S
C1736      C1737   1.493       .  S
C1736      H1748   1.085       .  S
C1737      C1738   1.404       .  A
C1737      C1742   1.409       .  A
C1738      C1739   1.400       .  A
C1738      H1749   1.083       .  S
C1739      C1740   1.407       .  A
C1739      H1750   1.083       .  S
C1740      C1741   1.411       .  A
C1741      C1742   1.406       .  A
C1741      H1751   1.083       .  S
C1742      H1752   1.082       .  S
C1753      C1754   1.408       .  A
C1753      C1758   1.413       .  A
C1754      C1755   1.413       .  A
C1754      H1767   1.083       .  S
C1755      C1756   1.412       .  A
C1755      H1768   1.083       .  S
C1756      C1757   1.406       .  A
C1756      C1759   1.507       .  S
C1757      C1758   1.402       .  A
C1757      H1769   1.081       .  S
C1758      H1770   1.083       .  S
C1759      C1760   1.360       .  D
C1759      H1771   1.084       .  S
C1760      C1761   1.507   1_565  S
C1760      H1772   1.085       .  S
C1761      C1762   1.413       .  A
C1761      C1766   1.407       .  A
C1762      C1763   1.411       .  A
C1762      H1773   1.083       .  S
C1763      C1764   1.404       .  A
C1763      H1774   1.083       .  S
C1764      C1765   1.410       .  A
C1765      C1766   1.403       .  A
C1765      H1775   1.084       .  S
C1766      H1776   1.081       .  S
C1777      C1778   1.409       .  A
C1777      C1782   1.410       .  A
C1778      C1779   1.400       .  A
C1778      H1791   1.083       .  S
C1779      C1780   1.405       .  A
C1779      H1792   1.083       .  S
C1780      C1781   1.413       .  A
C1780      C1783   1.505       .  S
C1781      C1782   1.411       .  A
C1781      H1793   1.080       .  S
C1782      H1794   1.083       .  S
C1783      C1784   1.354       .  D
C1783      H1795   1.085       .  S
C1784      C1785   1.504       .  S
C1784      H1796   1.084       .  S
C1785      C1786   1.407       .  A
C1785      C1790   1.410       .  A
C1786      C1787   1.405       .  A
C1786      H1797   1.083       .  S
C1787      C1788   1.409       .  A
C1787      H1798   1.083       .  S
C1788      C1789   1.410       .  A
C1789      C1790   1.405       .  A
C1789      H1799   1.083       .  S
C1790      H1800   1.081       .  S
C1801      C1802   1.405       .  A
C1801      C1806   1.407       .  A
C1802      C1803   1.406       .  A
C1802      H1815   1.083       .  S
C1803      C1804   1.410       .  A
C1803      H1816   1.083       .  S
C1804      C1805   1.407       .  A
C1804      C1807   1.497       .  S
C1805      C1806   1.396       .  A
C1805      H1817   1.080       .  S
C1806      H1818   1.083       .  S
C1807      C1808   1.355       .  D
C1807      H1819   1.083       .  S
C1808      C1809   1.495       .  S
C1808      H1820   1.083       .  S
C1809      C1810   1.408       .  A
C1809      C1814   1.408       .  A
C1810      C1811   1.401       .  A
C1810      H1821   1.083       .  S
C1811      C1812   1.403       .  A
C1811      H1822   1.083       .  S
C1812      C1813   1.407       .  A
C1813      C1814   1.399       .  A
C1813      H1823   1.083       .  S
C1814      H1824   1.080       .  S
C1825      C1826   1.408       .  A
C1825      C1830   1.405       .  A
C1826      C1827   1.398       .  A
C1826      H1839   1.083       .  S
C1827      C1828   1.404       .  A
C1827      H1840   1.083       .  S
C1828      C1829   1.413       .  A
C1828      C1831   1.497       .  S
C1829      C1830   1.402       .  A
C1829      H1841   1.079       .  S
C1830      H1842   1.083       .  S
C1831      C1832   1.347       .  D
C1831      H1843   1.086       .  S
C1832      C1833   1.489       .  S
C1832      H1844   1.082       .  S
C1833      C1834   1.400       .  A
C1833      C1838   1.410       .  A
C1834      C1835   1.393       .  A
C1834      H1845   1.084       .  S
C1835      C1836   1.408       .  A
C1835      H1846   1.082       .  S
C1836      C1837   1.408       .  A
C1837      C1838   1.407       .  A
C1837      H1847   1.083       .  S
C1838      H1848   1.082       .  S
C1849      C1850   1.408       .  A
C1849      C1854   1.407       .  A
C1850      C1851   1.401       .  A
C1850      H1863   1.083       .  S
C1851      C1852   1.405       .  A
C1851      H1864   1.083       .  S
C1852      C1853   1.409       .  A
C1852      C1855   1.495       .  S
C1853      C1854   1.401       .  A
C1853      H1865   1.080       .  S
C1854      H1866   1.083       .  S
C1855      C1856   1.350       .  D
C1855      H1867   1.086       .  S
C1856      C1857   1.489       .  S
C1856      H1868   1.084       .  S
C1857      C1858   1.401       .  A
C1857      C1862   1.409       .  A
C1858      C1859   1.397       .  A
C1858      H1869   1.084       .  S
C1859      C1860   1.407       .  A
C1859      H1870   1.083       .  S
C1860      C1861   1.407       .  A
C1861      C1862   1.406       .  A
C1861      H1871   1.083       .  S
C1862      H1872   1.082       .  S
C1873      C1874   1.407       .  A
C1873      C1878   1.406       .  A
C1874      C1875   1.399       .  A
C1874      H1887   1.083       .  S
C1875      C1876   1.402       .  A
C1875      H1888   1.083       .  S
C1876      C1877   1.407       .  A
C1876      C1879   1.486       .  S
C1877      C1878   1.402       .  A
C1877      H1889   1.083       .  S
C1878      H1890   1.083       .  S
C1879      C1880   1.346   1_455  D
C1879      H1891   1.087       .  S
C1880      C1881   1.486       .  S
C1880      H1892   1.087   1_655  S
C1881      C1882   1.401       .  A
C1881      C1886   1.407       .  A
C1882      C1883   1.398       .  A
C1882      H1893   1.083       .  S
C1883      C1884   1.407       .  A
C1883      H1894   1.083       .  S
C1884      C1885   1.407       .  A
C1885      C1886   1.404       .  A
C1885      H1895   1.083       .  S
C1886      H1896   1.083       .  S
C1897      C1898   1.406       .  A
C1897      C1902   1.408       .  A
C1898      C1899   1.400       .  A
C1898      H1911   1.083       .  S
C1899      C1900   1.404       .  A
C1899      H1912   1.083       .  S
C1900      C1901   1.411       .  A
C1900      C1903   1.499       .  S
C1901      C1902   1.408       .  A
C1901      H1913   1.082       .  S
C1902      H1914   1.083       .  S
C1903      C1904   1.351       .  D
C1903      H1915   1.084       .  S
C1904      C1905   1.502       .  S
C1904      H1916   1.086       .  S
C1905      C1906   1.403       .  A
C1905      C1910   1.413       .  A
C1906      C1907   1.398       .  A
C1906      H1917   1.083       .  S
C1907      C1908   1.408       .  A
C1907      H1918   1.083       .  S
C1908      C1909   1.410       .  A
C1909      C1910   1.411       .  A
C1909      H1919   1.083       .  S
C1910      H1920   1.081       .  S
C1921      C1922   1.407       .  A
C1921      C1926   1.410       .  A
C1922      C1923   1.404       .  A
C1922      H1935   1.083       .  S
C1923      C1924   1.407       .  A
C1923      H1936   1.083       .  S
C1924      C1925   1.408       .  A
C1924      C1927   1.498       .  S
C1925      C1926   1.402       .  A
C1925      H1937   1.081       .  S
C1926      H1938   1.083       .  S
C1927      C1928   1.355       .  D
C1927      H1939   1.084       .  S
C1928      C1929   1.499       .  S
C1928      H1940   1.085       .  S
C1929      C1930   1.408       .  A
C1929      C1934   1.408       .  A
C1930      C1931   1.404       .  A
C1930      H1941   1.083       .  S
C1931      C1932   1.406       .  A
C1931      H1942   1.083       .  S
C1932      C1933   1.409       .  A
C1933      C1934   1.402       .  A
C1933      H1943   1.083       .  S
C1934      H1944   1.081       .  S
C1945      C1946   1.409       .  A
C1945      C1950   1.405       .  A
C1946      C1947   1.393       .  A
C1946      H1959   1.083       .  S
C1947      C1948   1.400       .  A
C1947      H1960   1.084       .  S
C1948      C1949   1.415       .  A
C1948      C1951   1.496       .  S
C1949      C1950   1.409       .  A
C1949      H1961   1.080       .  S
C1950      H1962   1.083       .  S
C1951      C1952   1.346       .  D
C1951      H1963   1.085       .  S
C1952      C1953   1.493       .  S
C1952      H1964   1.083       .  S
C1953      C1954   1.400       .  A
C1953      C1958   1.414       .  A
C1954      C1955   1.394       .  A
C1954      H1965   1.084       .  S
C1955      C1956   1.408       .  A
C1955      H1966   1.083       .  S
C1956      C1957   1.404       .  A
C1957      C1958   1.407       .  A
C1957      H1967   1.083       .  S
C1958      H1968   1.081       .  S
C1969      C1970   1.407       .  A
C1969      C1974   1.411       .  A
C1970      C1971   1.403       .  A
C1970      H1983   1.083       .  S
C1971      C1972   1.406       .  A
C1971      H1984   1.083       .  S
C1972      C1973   1.409       .  A
C1972      C1975   1.499       .  S
C1973      C1974   1.406       .  A
C1973      H1985   1.082       .  S
C1974      H1986   1.083       .  S
C1975      C1976   1.354       .  D
C1975      H1987   1.085       .  S
C1976      C1977   1.501       .  S
C1976      H1988   1.085       .  S
C1977      C1978   1.408       .  A
C1977      C1982   1.408       .  A
C1978      C1979   1.407       .  A
C1978      H1989   1.083       .  S
C1979      C1980   1.407       .  A
C1979      H1990   1.083       .  S
C1980      C1981   1.409       .  A
C1981      C1982   1.401       .  A
C1981      H1991   1.083       .  S
C1982      H1992   1.081       .  S
C1993      C1994   1.405       .  A
C1993      C1998   1.410       .  A
C1994      C1995   1.400       .  A
C1994      H2007   1.083       .  S
C1995      C1996   1.406       .  A
C1995      H2008   1.083       .  S
C1996      C1997   1.406       .  A
C1996      C1999   1.489       .  S
C1997      C1998   1.399       .  A
C1997      H2009   1.081       .  S
C1998      H2010   1.083       .  S
C1999      C2000   1.353       .  D
C1999      H2011   1.083       .  S
C2000      C2001   1.493       .  S
C2000      H2012   1.085       .  S
C2001      C2002   1.409       .  A
C2001      C2006   1.406       .  A
C2002      C2003   1.405       .  A
C2002      H2013   1.083       .  S
C2003      C2004   1.403       .  A
C2003      H2014   1.083       .  S
C2004      C2005   1.406       .  A
C2005      C2006   1.393       .  A
C2005      H2015   1.084       .  S
C2006      H2016   1.080       .  S
C2017      C2018   1.404       .  A
C2017      C2022   1.404       .  A
C2018      C2019   1.405       .  A
C2018      H2031   1.083       .  S
C2019      C2020   1.408       .  A
C2019      H2032   1.083       .  S
C2020      C2021   1.406       .  A
C2020      C2023   1.490       .  S
C2021      C2022   1.393       .  A
C2021      H2033   1.081       .  S
C2022      H2034   1.083       .  S
C2023      C2024   1.353       .  D
C2023      H2035   1.083       .  S
C2024      C2025   1.489       .  S
C2024      H2036   1.084       .  S
C2025      C2026   1.408       .  A
C2025      C2030   1.405       .  A
C2026      C2027   1.401       .  A
C2026      H2037   1.083       .  S
C2027      C2028   1.403       .  A
C2027      H2038   1.083       .  S
C2028      C2029   1.410       .  A
C2029      C2030   1.395       .  A
C2029      H2039   1.083       .  S
C2030      H2040   1.080       .  S
C2041      C2042   1.405       .  A
C2041      C2046   1.411       .  A
C2042      C2043   1.407       .  A
C2042      H2055   1.083       .  S
C2043      C2044   1.411       .  A
C2043      H2056   1.083       .  S
C2044      C2045   1.407       .  A
C2044      C2047   1.504       .  S
C2045      C2046   1.402       .  A
C2045      H2057   1.080       .  S
C2046      H2058   1.083       .  S
C2047      C2048   1.361       .  D
C2047      H2059   1.081       .  S
C2048      C2049   1.509   1_565  S
C2048      H2060   1.084       .  S
C2049      C2050   1.414       .  A
C2049      C2054   1.408       .  A
C2050      C2051   1.412       .  A
C2050      H2061   1.083       .  S
C2051      C2052   1.405       .  A
C2051      H2062   1.083       .  S
C2052      C2053   1.407       .  A
C2053      C2054   1.399       .  A
C2053      H2063   1.084       .  S
C2054      H2064   1.078       .  S
C2065      C2066   1.408       .  A
C2065      C2070   1.408       .  A
C2066      C2067   1.400       .  A
C2066      H2079   1.083       .  S
C2067      C2068   1.404   1_455  A
C2067      H2080   1.083   1_455  S
C2068      C2069   1.411   1_655  A
C2068      C2071   1.497       .  S
C2069      C2070   1.405       .  A
C2069      H2081   1.081   1_455  S
C2070      H2082   1.083       .  S
C2071      C2072   1.351       .  D
C2071      H2083   1.084       .  S
C2072      C2073   1.498       .  S
C2072      H2084   1.084       .  S
C2073      C2074   1.404       .  A
C2073      C2078   1.411       .  A
C2074      C2075   1.399       .  A
C2074      H2085   1.083       .  S
C2075      C2076   1.408       .  A
C2075      H2086   1.083       .  S
C2076      C2077   1.408       .  A
C2077      C2078   1.405       .  A
C2077      H2087   1.083       .  S
C2078      H2088   1.081       .  S
C2089      C2090   1.406       .  A
C2089      C2094   1.408       .  A
C2090      C2091   1.400       .  A
C2090      H2103   1.083       .  S
C2091      C2092   1.408       .  A
C2091      H2104   1.081       .  S
C2092      C2093   1.404       .  A
C2092      C2095   1.491       .  S
C2093      C2094   1.400       .  A
C2093      H2105   1.083       .  S
C2094      H2106   1.083       .  S
C2095      C2096   1.350       .  D
C2095      H2107   1.084       .  S
C2096      C2097   1.492       .  S
C2096      H2108   1.085       .  S
C2097      C2098   1.404       .  A
C2097      C2102   1.408       .  A
C2098      C2099   1.399       .  A
C2098      H2109   1.083       .  S
C2099      C2100   1.406       .  A
C2099      H2110   1.083       .  S
C2100      C2101   1.408       .  A
C2101      C2102   1.401       .  A
C2101      H2111   1.083       .  S
C2102      H2112   1.081       .  S
C2113      C2114   1.407       .  A
C2113      C2118   1.409       .  A
C2114      C2115   1.404       .  A
C2114      H2127   1.083       .  S
C2115      C2116   1.407       .  A
C2115      H2128   1.083       .  S
C2116      C2117   1.410       .  A
C2116      C2119   1.501       .  S
C2117      C2118   1.403       .  A
C2117      H2129   1.080       .  S
C2118      H2130   1.083       .  S
C2119      C2120   1.354       .  D
C2119      H2131   1.083       .  S
C2120      C2121   1.502       .  S
C2120      H2132   1.084       .  S
C2121      C2122   1.405       .  A
C2121      C2126   1.413       .  A
C2122      C2123   1.399       .  A
C2122      H2133   1.083       .  S
C2123      C2124   1.408       .  A
C2123      H2134   1.083       .  S
C2124      C2125   1.407       .  A
C2125      C2126   1.407       .  A
C2125      H2135   1.083       .  S
C2126      H2136   1.079       .  S
C2137      C2138   1.406       .  A
C2137      C2142   1.408       .  A
C2138      C2139   1.404       .  A
C2138      H2151   1.083       .  S
C2139      C2140   1.408       .  A
C2139      H2152   1.083       .  S
C2140      C2141   1.406       .  A
C2140      C2143   1.494       .  S
C2141      C2142   1.396       .  A
C2141      H2153   1.080       .  S
C2142      H2154   1.083       .  S
C2143      C2144   1.353       .  D
C2143      H2155   1.086       .  S
C2144      C2145   1.487       .  S
C2144      H2156   1.083       .  S
C2145      C2146   1.407       .  A
C2145      C2150   1.404       .  A
C2146      C2147   1.403       .  A
C2146      H2157   1.083       .  S
C2147      C2148   1.403       .  A
C2147      H2158   1.083       .  S
C2148      C2149   1.407       .  A
C2149      C2150   1.396       .  A
C2149      H2159   1.084       .  S
C2150      H2160   1.082       .  S
C2161      C2162   1.405       .  A
C2161      C2166   1.403       .  A
C2162      C2163   1.406       .  A
C2162      H2175   1.083       .  S
C2163      C2164   1.408       .  A
C2163      H2176   1.083       .  S
C2164      C2165   1.406       .  A
C2164      C2167   1.491       .  S
C2165      C2166   1.393       .  A
C2165      H2177   1.081       .  S
C2166      H2178   1.084       .  S
C2167      C2168   1.353       .  D
C2167      H2179   1.085       .  S
C2168      C2169   1.487       .  S
C2168      H2180   1.084       .  S
C2169      C2170   1.407       .  A
C2169      C2174   1.404       .  A
C2170      C2171   1.400       .  A
C2170      H2181   1.083       .  S
C2171      C2172   1.403       .  A
C2171      H2182   1.083       .  S
C2172      C2173   1.411       .  A
C2173      C2174   1.397       .  A
C2173      H2183   1.082       .  S
C2174      H2184   1.081       .  S
C2185      C2186   1.406       .  A
C2185      C2190   1.409       .  A
C2186      C2187   1.405       .  A
C2186      H2199   1.083       .  S
C2187      C2188   1.408       .  A
C2187      H2200   1.083       .  S
C2188      C2189   1.407       .  A
C2188      C2191   1.497       .  S
C2189      C2190   1.399       .  A
C2189      H2201   1.080       .  S
C2190      H2202   1.083       .  S
C2191      C2192   1.355   1_545  D
C2191      H2203   1.085       .  S
C2192      C2193   1.493       .  S
C2192      H2204   1.084       .  S
C2193      C2194   1.407       .  A
C2193      C2198   1.406       .  A
C2194      C2195   1.404       .  A
C2194      H2205   1.083       .  S
C2195      C2196   1.406       .  A
C2195      H2206   1.083       .  S
C2196      C2197   1.408       .  A
C2197      C2198   1.398       .  A
C2197      H2207   1.083       .  S
C2198      H2208   1.081       .  S
