geometry optimzed in LAMMPS
_audit_creation_date              2020-12-01 
_audit_creation_method            'lammps2cif' 
_symmetry_space_group_name_H-M    'P1' 
_symmetry_Int_Tables_number       1 
_symmetry_cell_setting            triclinic 
loop_ 
_symmetry_equiv_pos_as_xyz 
  x,y,z 
_cell_length_a                    59.69586655 
_cell_length_b                    72.09348792534391 
_cell_length_c                    49.255762480532255 
_cell_angle_alpha                 90.04284129026277 
_cell_angle_beta                  90.0591086926656 
_cell_angle_gamma                 89.98541639022814 
loop_ 
_atom_site_label 
_atom_site_type_symbol 
_atom_site_fract_x 
_atom_site_fract_y 
_atom_site_fract_z 
_atom_site_charge 
Zr1        Zr  0.35440717  0.52292578  0.63184063     2.17500
O2          O  0.37334898  0.54156554  0.66613412    -0.51100
O3          O  0.32739505  0.51934865  0.66913940    -0.74300
O4          O  0.34249033  0.55533446  0.63060935    -0.81100
O5          O  0.39926945  0.48510227  0.64530741    -0.82800
O6          O  0.31934336  0.55823885  0.59441632    -0.78400
O7          O  0.38641795  0.51326249  0.65858466    -0.90100
O8          O  0.30455584  0.49528884  0.65872579    -0.76000
O9          O  0.31836506  0.51759555  0.61311212    -0.85500
O10         O  0.34902707  0.49021125  0.63320451    -0.85200
O11         O  0.35737145  0.53529933  0.58642402    -0.72000
O12         O  0.38389432  0.50991150  0.60429193    -0.84100
Zr13       Zr  0.34290375  0.48307884  0.54086997     2.26400
Zr14       Zr  0.32102941  0.52955404  0.56785746     2.06300
Zr15       Zr  0.37780252  0.47716973  0.60519962     2.10000
Zr16       Zr  0.31331441  0.48478623  0.61359626     1.78800
O17         O  0.41773733  0.47148651  0.59959246    -0.92900
O18         O  0.27379648  0.49310425  0.61103661    -0.40700
O19         O  0.34173182  0.47059358  0.58616864    -0.77300
O20         O  0.31414193  0.49668552  0.56868976    -0.96000
O21         O  0.34895772  0.51581817  0.53937442    -0.89300
O22         O  0.37924565  0.48833305  0.55952329    -0.92200
C23         C  0.31130055  0.50812535  0.67469890     1.01600
C24         C  0.39983762  0.49943510  0.66069294     1.14500
C25         C  0.32912473  0.56484883  0.61566252     1.05300
O26         O  0.28196242  0.53840847  0.57372481    -0.94300
O27         O  0.29949048  0.52010411  0.52852314    -0.90100
O28         O  0.31137615  0.49219204  0.51237039    -0.83200
C29         C  0.29791638  0.50610362  0.51245096     1.11900
O30         O  0.41257903  0.54276468  0.57553335    -0.96300
Zr31       Zr  0.38506662  0.52081163  0.55816428     1.88900
O32         O  0.36460098  0.48916884  0.50023141    -0.73000
O33         O  0.32802786  0.55462780  0.53583644    -0.52200
O34         O  0.38341952  0.55052561  0.53474615    -0.96900
O35         O  0.42393371  0.51071520  0.55484439    -0.54100
O36         O  0.38859628  0.51261351  0.51006292    -0.73500
C37         C  0.37990329  0.50075665  0.49355426     0.98900
O38         O  0.31993658  0.45964808  0.51848414    -0.62300
O39         O  0.37332941  0.45036023  0.63477741    -0.57100
O40         O  0.36187541  0.45306263  0.53761238    -0.93800
O41         O  0.38213394  0.45032361  0.57636715    -0.92200
O42         O  0.31601931  0.45626668  0.63991034    -0.92600
O43         O  0.28828560  0.46036748  0.59791346    -0.91300
C44         C  0.37548144  0.44427448  0.55320931     1.17700
H45         H  0.34990597  0.48561484  0.65157692     0.33700
H46         H  0.29947002  0.49383104  0.56157778     0.44500
H47         H  0.39065617  0.48199380  0.54916757     0.38000
H48         H  0.36079892  0.54838232  0.58651452     0.34500
H49         H  0.26756563  0.48996706  0.62908019     0.26300
H50         H  0.33338929  0.54842473  0.51912028     0.32200
H51         H  0.39662200  0.55051508  0.52258530     0.38200
H52         H  0.32147269  0.46013160  0.65803583     0.32600
H53         H  0.37000156  0.45554182  0.65294905     0.31500
H54         H  0.42044981  0.45951138  0.60886397     0.33200
H55         H  0.42421634  0.50152559  0.53990655     0.32100
H56         H  0.29581451  0.45514963  0.58171557     0.36100
H57         H  0.32906584  0.45500042  0.50313900     0.28900
H58         H  0.36132719  0.54758100  0.67680262     0.33100
H59         H  0.40637712  0.54690180  0.59316929     0.36000
H60         H  0.35911993  0.44455380  0.62884898     0.28600
H61         H  0.31901082  0.44917317  0.53141481     0.41400
H62         H  0.27970430  0.54893410  0.56111089     0.31500
H63         H  0.27365058  0.50682956  0.61046136     0.39100
H64         H  0.42652902  0.50332807  0.57148169     0.31000
H65         H  0.31297236  0.55936039  0.53102181     0.31000
H66         H  0.38083249  0.55167074  0.65604244     0.31300
Zr67       Zr  0.35699681  0.74048464  0.65666290     2.17500
O68         O  0.37910882  0.71994909  0.62784964    -0.51100
O69         O  0.33377864  0.74877661  0.61763661    -0.74300
O70         O  0.33941806  0.71018884  0.64938433    -0.81100
O71         O  0.40712475  0.77386225  0.65665834    -0.82800
O72         O  0.31498835  0.70601757  0.68400218    -0.78400
O73         O  0.39109415  0.74996285  0.63394710    -0.90100
O74         O  0.30723801  0.76966298  0.62972816    -0.76000
O75         O  0.32014525  0.74655115  0.67213728    -0.85500
O76         O  0.35375551  0.77342309  0.65893324    -0.85200
O77         O  0.35565630  0.72525647  0.70008583    -0.72000
O78         O  0.38496177  0.75035507  0.68872790    -0.84100
Zr79       Zr  0.34112361  0.77555542  0.75046365     2.26400
Zr80       Zr  0.31861810  0.73185668  0.71545621     2.06300
Zr81       Zr  0.38112261  0.78326233  0.69152413     2.10000
Zr82       Zr  0.31692227  0.77942069  0.67514624     1.78800
O83         O  0.42026822  0.78949292  0.70218606    -0.92900
O84         O  0.27643116  0.77524849  0.67567790    -0.40700
O85         O  0.34420169  0.79050833  0.70699844    -0.77300
O86         O  0.31347089  0.76488032  0.71846226    -0.96000
O87         O  0.34513230  0.74262870  0.74829229    -0.89300
O88         O  0.37836001  0.76951622  0.73542585    -0.92200
C89         C  0.31635333  0.75869984  0.61255053     1.01600
C90         C  0.40699575  0.76167021  0.63775977     1.14500
C91         C  0.32453951  0.70063879  0.66198453     1.05300
O92         O  0.27932203  0.72562029  0.70599647    -0.94300
O93         O  0.29594984  0.73763036  0.75472983    -0.90100
O94         O  0.30943993  0.76327906  0.77595788    -0.83200
C95         C  0.29536401  0.74983788  0.77355074     1.11900
O96         O  0.40684327  0.71155094  0.71968669    -0.96300
Zr97       Zr  0.38206863  0.73681375  0.73290994     1.88900
O98         O  0.36152454  0.76800069  0.79162693    -0.73000
O99         O  0.32311384  0.70439838  0.74375213    -0.52200
O100        O  0.37612331  0.70765724  0.75677589    -0.96900
O101        O  0.42188899  0.74416563  0.73504580    -0.54100
O102        O  0.38587205  0.74500620  0.78069100    -0.73500
C103        C  0.37704911  0.75641723  0.79767842     0.98900
O104        O  0.31637310  0.79828900  0.77155343    -0.62300
O105        O  0.38109067  0.81029223  0.66187740    -0.57100
O106        O  0.36003300  0.80527555  0.75891458    -0.93800
O107        O  0.38374037  0.80874761  0.72331087    -0.92200
O108        O  0.32352995  0.80628650  0.64630644    -0.92600
O109        O  0.29741766  0.80676076  0.69202571    -0.91300
C110        C  0.37522294  0.81423833  0.74585681     1.17700
H111        H  0.35628243  0.77900332  0.64134155     0.33700
H112        H  0.29860797  0.76769139  0.72506768     0.44500
H113        H  0.38928155  0.77481472  0.74766781     0.38000
H114        H  0.35794979  0.71206262  0.69807574     0.34500
H115        H  0.27077757  0.78343751  0.66106890     0.26300
H116        H  0.30820885  0.69838052  0.74354719     0.32200
H117        H  0.36559081  0.71071957  0.77163308     0.38200
H118        H  0.30940742  0.80794492  0.63602893     0.32600
H119        H  0.38302255  0.80529684  0.64329528     0.31500
H120        H  0.42194677  0.78650928  0.72168973     0.33200
H121        H  0.42312239  0.75440494  0.74836174     0.32100
H122        H  0.29615610  0.80470676  0.71183738     0.36100
H123        H  0.32404422  0.80218547  0.78845608     0.28900
H124        H  0.36974469  0.71770563  0.61158680     0.33100
H125        H  0.40824926  0.71277199  0.69973868     0.36000
H126        H  0.36549431  0.81492010  0.66236129     0.28600
H127        H  0.31682016  0.80930149  0.75956560     0.41400
H128        H  0.27206520  0.73796711  0.70613410     0.31500
H129        H  0.27405077  0.76253193  0.66864360     0.39100
H130        H  0.42530249  0.74998825  0.71732528     0.31000
H131        H  0.33281373  0.69594763  0.73313127     0.31000
H132        H  0.37999758  0.70786960  0.63734986     0.31300
Zr133      Zr  0.45483480  0.52563022  0.15916136     2.17500
O134        O  0.44571681  0.55139478  0.12905399    -0.51100
O135        O  0.47891871  0.51872359  0.11990073    -0.74300
O136        O  0.47162090  0.55624376  0.16413562    -0.81100
O137        O  0.40733016  0.49275511  0.14451090    -0.82800
O138        O  0.49330704  0.55869259  0.20166264    -0.78400
O139        O  0.42001855  0.52138255  0.13373726    -0.90100
O140        O  0.50309170  0.49619044  0.13259076    -0.76000
O141        O  0.49003665  0.51852990  0.17910766    -0.85500
O142        O  0.45856004  0.49269266  0.15632592    -0.85200
O143        O  0.45201546  0.53690572  0.20521634    -0.72000
O144        O  0.42371808  0.51324253  0.18460572    -0.84100
Zr145      Zr  0.46132856  0.48345052  0.24817413     2.26400
Zr146      Zr  0.48746562  0.52932747  0.22494283     2.06300
Zr147      Zr  0.42824228  0.48027458  0.18235895     2.10000
Zr148      Zr  0.49344610  0.48562553  0.17733892     1.78800
O149        O  0.38859245  0.47239687  0.18179787    -0.92900
O150        O  0.53303247  0.49369515  0.18033559    -0.40700
O151        O  0.46328390  0.47187581  0.20248083    -0.77300
O152        O  0.49204106  0.49634644  0.22281616    -0.96000
O153        O  0.45740418  0.51637652  0.25099572    -0.89300
O154        O  0.42608727  0.49071872  0.22833807    -0.92200
C155        C  0.49558505  0.50785615  0.11525337     1.01600
C156        C  0.40610668  0.50794272  0.13102650     1.14500
C157        C  0.48479534  0.56541635  0.17986244     1.05300
O158        O  0.52779879  0.53187091  0.21855909    -0.94300
O159        O  0.50526799  0.51961915  0.26660856    -0.90100
O160        O  0.49349326  0.49040767  0.27723844    -0.83200
C161        C  0.50632556  0.50459376  0.28043594     1.11900
O162        O  0.39810594  0.54756572  0.21245881    -0.96300
Zr163      Zr  0.42211303  0.52334752  0.23103646     1.88900
O164        O  0.43924341  0.49142972  0.28791681    -0.73000
O165        O  0.48453041  0.55578374  0.25550410    -0.52200
O166        O  0.42347857  0.55228051  0.25652745    -0.96900
O167        O  0.38341106  0.51259816  0.23204406    -0.54100
O168        O  0.41538076  0.51504736  0.27844089    -0.73500
C169        C  0.42399900  0.50311657  0.29477420     0.98900
O170        O  0.48068562  0.45800861  0.27089451    -0.62300
O171        O  0.43693417  0.45549645  0.15039581    -0.57100
O172        O  0.43928990  0.45452008  0.24777578    -0.93800
O173        O  0.41830325  0.45326613  0.20930469    -0.92200
O174        O  0.49288006  0.45783849  0.14922747    -0.92600
O175        O  0.51612540  0.46069982  0.19636686    -0.91300
C176        C  0.42473709  0.44661354  0.23218873     1.17700
H177        H  0.45789553  0.48834478  0.13781257     0.33700
H178        H  0.50632394  0.49281483  0.23044202     0.44500
H179        H  0.41394781  0.48474563  0.23792342     0.38000
H180        H  0.44959119  0.55012771  0.20564419     0.34500
H181        H  0.54033038  0.48634786  0.16583367     0.26300
H182        H  0.47697880  0.55088788  0.27188117     0.32200
H183        H  0.40972794  0.55221838  0.26776012     0.38200
H184        H  0.50800543  0.45725426  0.14102093     0.32600
H185        H  0.44766763  0.44745423  0.16021743     0.31500
H186        H  0.38690059  0.46345395  0.16666612     0.33200
H187        H  0.37772708  0.51443203  0.21334411     0.32100
H188        H  0.50905018  0.45787007  0.21406122     0.36100
H189        H  0.47015113  0.45339165  0.28485555     0.28900
H190        H  0.44394320  0.54596581  0.11071405     0.33100
H191        H  0.40526801  0.55103088  0.19506000     0.36000
H192        H  0.42304484  0.44803129  0.14933133     0.28600
H193        H  0.48164423  0.44793719  0.25726042     0.41400
H194        H  0.53302768  0.53978548  0.23372957     0.31500
H195        H  0.53391858  0.50667131  0.17385876     0.39100
H196        H  0.37532878  0.52188192  0.24316352     0.31000
H197        H  0.50010625  0.55826038  0.26141685     0.31000
H198        H  0.43061596  0.55570701  0.13443185     0.31300
Zr199      Zr  0.45376506  0.73966152  0.13297926     2.17500
O200        O  0.44159403  0.71656426  0.16603523    -0.51100
O201        O  0.47665103  0.74763559  0.17228976    -0.74300
O202        O  0.47029034  0.70881897  0.13502681    -0.81100
O203        O  0.40295222  0.77179840  0.13427080    -0.82800
O204        O  0.49569690  0.70525897  0.10135773    -0.78400
O205        O  0.41840856  0.74678185  0.15508521    -0.90100
O206        O  0.50228310  0.76894608  0.15927512    -0.76000
O207        O  0.49014262  0.74672099  0.11676391    -0.85500
O208        O  0.45596709  0.77270890  0.13177615    -0.85200
O209        O  0.45504355  0.72502269  0.08909919    -0.72000
O210        O  0.42475281  0.74950586  0.10207802    -0.84100
Zr211      Zr  0.46703417  0.77547248  0.03899111     2.26400
Zr212      Zr  0.49161429  0.73255754  0.07287709     2.06300
Zr213      Zr  0.42833838  0.78256819  0.09962039     2.10000
Zr214      Zr  0.49208993  0.77968949  0.11460996     1.78800
O215        O  0.38955837  0.79266855  0.09526661    -0.92900
O216        O  0.53272603  0.77689389  0.11255500    -0.40700
O217        O  0.46454646  0.79028525  0.08272760    -0.77300
O218        O  0.49532410  0.76581967  0.07099722    -0.96000
O219        O  0.46389930  0.74251144  0.04079790    -0.89300
O220        O  0.43031974  0.76880123  0.05545438    -0.92200
C221        C  0.49384613  0.75784105  0.17677086     1.01600
C222        C  0.40267718  0.75865549  0.15178636     1.14500
C223        C  0.48535210  0.69939806  0.12247111     1.05300
O224        O  0.53014057  0.72452610  0.08377456    -0.94300
O225        O  0.51703522  0.74121090  0.03732018    -0.90100
O226        O  0.50280847  0.76704248  0.01730411    -0.83200
C227        C  0.51819153  0.75464425  0.02043083     1.11900
O228        O  0.40468857  0.71045708  0.07513177    -0.96300
Zr229      Zr  0.42736381  0.73595265  0.05777071     1.88900
O230        O  0.44664236  0.76440074  0.99902591    -0.73000
O231        O  0.48741214  0.70700309  0.04095170    -0.52200
O232        O  0.43538895  0.70706423  0.03397691    -0.96900
O233        O  0.38716833  0.74194892  0.05603283    -0.54100
O234        O  0.42119209  0.74240073  0.01004563    -0.73500
C235        C  0.43080571  0.75302590  0.99280375     0.98900
O236        O  0.48288116  0.80021758  0.01120576    -0.62300
O237        O  0.43465859  0.80882325  0.12983201    -0.57100
O238        O  0.44817084  0.80559008  0.03334375    -0.93800
O239        O  0.42255457  0.80743477  0.06728554    -0.92200
O240        O  0.48397505  0.80607656  0.14393525    -0.92600
O241        O  0.51138900  0.80778503  0.10022906    -0.91300
C242        C  0.43186994  0.81371189  0.04569119     1.17700
H243        H  0.45347809  0.77798801  0.14951581     0.33700
H244        H  0.51012546  0.76957970  0.06544955     0.44500
H245        H  0.41894619  0.77386030  0.04360409     0.38000
H246        H  0.45295903  0.71177614  0.09025089     0.34500
H247        H  0.53815392  0.78205712  0.12999382     0.26300
H248        H  0.50251913  0.70137874  0.03991840     0.32200
H249        H  0.42350257  0.70592053  0.02005537     0.38200
H250        H  0.49698529  0.80689527  0.15636527     0.32600
H251        H  0.43114669  0.81989779  0.11873926     0.31500
H252        H  0.38433174  0.78731523  0.07786583     0.33200
H253        H  0.38338433  0.74284320  0.03651292     0.32100
H254        H  0.49982218  0.81520491  0.09074472     0.36100
H255        H  0.49809678  0.80250130  0.01851331     0.28900
H256        H  0.44043550  0.72324883  0.18353182     0.33100
H257        H  0.39571165  0.70600666  0.05951274     0.36000
H258        H  0.42231982  0.80813657  0.14320703     0.28600
H259        H  0.48523267  0.79480762  0.99294358     0.41400
H260        H  0.53244937  0.72910200  0.10251891     0.31500
H261        H  0.53563431  0.76341069  0.11395086     0.39100
H262        H  0.38540866  0.75473212  0.06302943     0.31000
H263        H  0.47827513  0.69770513  0.05073544     0.31000
H264        H  0.42606332  0.71306829  0.16117376     0.31300
Zr265      Zr  0.09290239  0.52390610  0.28898457     2.17500
O266        O  0.07416598  0.54530236  0.25800114    -0.51100
O267        O  0.11400123  0.51606208  0.24811775    -0.74300
O268        O  0.10997715  0.55512999  0.28847826    -0.81100
O269        O  0.04271048  0.49027771  0.28632242    -0.82800
O270        O  0.13257009  0.55843133  0.32534462    -0.78400
O271        O  0.05697288  0.51671710  0.26796342    -0.90100
O272        O  0.13701798  0.49213112  0.25836049    -0.76000
O273        O  0.12950798  0.51724416  0.30545015    -0.85500
O274        O  0.09587871  0.49077300  0.28922717    -0.85200
O275        O  0.09379523  0.53722318  0.33376286    -0.72000
O276        O  0.06445268  0.51221533  0.31889823    -0.84100
Zr277      Zr  0.10635391  0.48610090  0.38139537     2.26400
Zr278      Zr  0.13041349  0.52980360  0.35053911     2.06300
Zr279      Zr  0.06833518  0.47919991  0.32047983     2.10000
Zr280      Zr  0.13233777  0.48427958  0.30588821     1.78800
O281        O  0.03071003  0.47344430  0.33752136    -0.92900
O282        O  0.17214948  0.49034607  0.29962287    -0.40700
O283        O  0.10503911  0.47236355  0.33688479    -0.77300
O284        O  0.13502938  0.49686103  0.35072196    -0.96000
O285        O  0.10228602  0.51890859  0.38103028    -0.89300
O286        O  0.06943425  0.49206313  0.36519064    -0.92200
C287        C  0.12898494  0.50407436  0.24168114     1.01600
C288        C  0.04180992  0.50413953  0.27010676     1.14500
C289        C  0.12336361  0.56461315  0.30366019     1.05300
O290        O  0.16954852  0.53494555  0.33888964    -0.94300
O291        O  0.15313540  0.52074198  0.38896976    -0.90100
O292        O  0.14077784  0.49332528  0.40572095    -0.83200
C293        C  0.15476896  0.50679255  0.40503121     1.11900
O294        O  0.04234440  0.55006947  0.34665486    -0.96300
Zr295      Zr  0.06590288  0.52498464  0.36343300     1.88900
O296        O  0.08274929  0.49295654  0.42078731    -0.73000
O297        O  0.12895750  0.55541301  0.38271991    -0.52200
O298        O  0.07107596  0.55376031  0.38860521    -0.96900
O299        O  0.02591077  0.51821578  0.36433475    -0.54100
O300        O  0.05947472  0.51664537  0.40995958    -0.73500
C301        C  0.06709320  0.50453055  0.42653298     0.98900
O302        O  0.12227381  0.46715869  0.41736891    -0.62300
O303        O  0.06472791  0.45448434  0.28691637    -0.57100
O304        O  0.09576665  0.45349992  0.37839106    -0.93800
O305        O  0.07079630  0.44956930  0.34417511    -0.92200
O306        O  0.12547596  0.45438053  0.28433810    -0.92600
O307        O  0.15755942  0.46047492  0.32311950    -0.91300
C308        C  0.08246255  0.44341990  0.36420706     1.17700
H309        H  0.09351929  0.48569136  0.27131453     0.33700
H310        H  0.14983863  0.49340846  0.35678666     0.44500
H311        H  0.05820223  0.48637045  0.37657656     0.38000
H312        H  0.09128298  0.55043816  0.33333675     0.34500
H313        H  0.17644267  0.48293934  0.28349849     0.26300
H314        H  0.12340069  0.54989340  0.39982958     0.32200
H315        H  0.07970202  0.55020766  0.40497376     0.38200
H316        H  0.11922727  0.45737614  0.26624208     0.32600
H317        H  0.06558891  0.46068285  0.26902075     0.31500
H318        H  0.02701132  0.46079442  0.33109446     0.33200
H319        H  0.02429468  0.50756261  0.37684768     0.32100
H320        H  0.15161376  0.45741721  0.34133888     0.36100
H321        H  0.10980243  0.45987859  0.42521552     0.28900
H322        H  0.08597195  0.55000840  0.24569552     0.33100
H323        H  0.04298690  0.54886747  0.32663776     0.36000
H324        H  0.07887887  0.44739045  0.28831389     0.28600
H325        H  0.13196939  0.45807571  0.40794835     0.41400
H326        H  0.17362730  0.54659659  0.34833509     0.31500
H327        H  0.17292330  0.50338172  0.29338956     0.39100
H328        H  0.02264003  0.51300605  0.34615726     0.31000
H329        H  0.14484287  0.55840895  0.38649645     0.31000
H330        H  0.06972711  0.55610865  0.26919522     0.31300
Zr331      Zr  0.09080889  0.22987712  0.49552835     2.17500
O332        O  0.07029713  0.20678356  0.52171807    -0.51100
O333        O  0.10918775  0.24047006  0.53700887    -0.74300
O334        O  0.11239443  0.20125615  0.50285439    -0.81100
O335        O  0.03815418  0.26075777  0.49414627    -0.82800
O336        O  0.13740636  0.19974070  0.46834564    -0.78400
O337        O  0.05529334  0.23724435  0.51698327    -0.90100
O338        O  0.13214643  0.26431283  0.52598152    -0.76000
O339        O  0.12725638  0.23760065  0.47960085    -0.85500
O340        O  0.09176903  0.26296274  0.49333389    -0.85200
O341        O  0.09365817  0.21496984  0.45191444    -0.72000
O342        O  0.06238820  0.23925674  0.46391279    -0.84100
Zr343      Zr  0.10323446  0.26534083  0.40094110     2.26400
Zr344      Zr  0.12973222  0.22381068  0.43543851     2.06300
Zr345      Zr  0.06413842  0.27236350  0.46072905     2.10000
Zr346      Zr  0.12810819  0.27050586  0.47749363     1.78800
O347        O  0.02681268  0.27823440  0.44269913    -0.92900
O348        O  0.16810783  0.26542668  0.48425555    -0.40700
O349        O  0.10068083  0.28002104  0.44468573    -0.77300
O350        O  0.13210587  0.25694078  0.43324706    -0.96000
O351        O  0.10164954  0.23238187  0.40325278    -0.89300
O352        O  0.06661571  0.25807726  0.41687408    -0.92200
C353        C  0.12352938  0.25303946  0.54329670     1.01600
C354        C  0.03882637  0.24835994  0.51276106     1.14500
C355        C  0.12893544  0.19354193  0.49049173     1.05300
O356        O  0.16943170  0.21673939  0.44008422    -0.94300
O357        O  0.15302923  0.23294366  0.39763997    -0.90100
O358        O  0.13840707  0.25854693  0.37751113    -0.83200
C359        C  0.15364423  0.24608075  0.38009677     1.11900
O360        O  0.04334723  0.19945451  0.43839063    -0.96300
Zr361      Zr  0.06544989  0.22500434  0.42037363     1.88900
O362        O  0.07891674  0.25639774  0.36262196    -0.73000
O363        O  0.12472717  0.19646285  0.40703005    -0.52200
O364        O  0.07238075  0.19571485  0.39718275    -0.96900
O365        O  0.02513026  0.23032423  0.41964201    -0.54100
O366        O  0.05869547  0.23068670  0.37269809    -0.73500
C367        C  0.06485770  0.24350074  0.35637555     0.98900
O368        O  0.11784732  0.28457414  0.36425752    -0.62300
O369        O  0.06059333  0.29714823  0.49422715    -0.57100
O370        O  0.09045293  0.29755882  0.40333679    -0.93800
O371        O  0.06589005  0.30217991  0.43761406    -0.92200
O372        O  0.11825670  0.29996340  0.49859625    -0.92600
O373        O  0.15142798  0.29592632  0.46134290    -0.91300
C374        C  0.07721468  0.30799840  0.41719439     1.17700
H375        H  0.08876949  0.26847709  0.51084383     0.33700
H376        H  0.14669158  0.26093649  0.42712756     0.44500
H377        H  0.05503165  0.26286068  0.40505278     0.38000
H378        H  0.09279508  0.20167196  0.45385006     0.34500
H379        H  0.16912475  0.25332463  0.49366663     0.26300
H380        H  0.13914569  0.19507179  0.39732526     0.32200
H381        H  0.08226070  0.19891478  0.38174650     0.38200
H382        H  0.10965634  0.30673160  0.48453718     0.32600
H383        H  0.04582299  0.30284815  0.49047444     0.31500
H384        H  0.02230069  0.29026110  0.45072887     0.33200
H385        H  0.02207790  0.23649846  0.40208336     0.32100
H386        H  0.14746195  0.29721951  0.44190898     0.36100
H387        H  0.10457536  0.28970343  0.35480415     0.28900
H388        H  0.07998095  0.20377142  0.53743761     0.33100
H389        H  0.05018606  0.19667853  0.45625611     0.36000
H390        H  0.05864650  0.29089632  0.51195201     0.28600
H391        H  0.12511958  0.29535931  0.37307878     0.41400
H392        H  0.17455031  0.22458555  0.45538278     0.31500
H393        H  0.17416786  0.26296950  0.46589717     0.39100
H394        H  0.02255985  0.24009365  0.43342856     0.31000
H395        H  0.12434532  0.18589775  0.41984772     0.31000
H396        H  0.07011685  0.19544813  0.51036630     0.31300
Zr397      Zr  0.21532453  0.52840515  0.99730763     2.17500
O398        O  0.23522298  0.55289883  0.02155801    -0.51100
O399        O  0.19978730  0.51915438  0.04078554    -0.74300
O400        O  0.19213960  0.55664866  0.00317591    -0.81100
O401        O  0.26694080  0.49587023  0.99521368    -0.82800
O402        O  0.16507288  0.55775808  0.97091732    -0.78400
O403        O  0.25298897  0.52190472  0.01499456    -0.90100
O404        O  0.17605254  0.49539681  0.03217122    -0.76000
O405        O  0.17824903  0.51917485  0.98599191    -0.85500
O406        O  0.21518184  0.49521468  0.99660091    -0.85200
O407        O  0.20815802  0.54199963  0.95361362    -0.72000
O408        O  0.24184493  0.51863481  0.96357846    -0.84100
Zr409      Zr  0.19745146  0.49066104  0.90571697     2.26400
Zr410      Zr  0.17124960  0.53158262  0.94181535     2.06300
Zr411      Zr  0.24055151  0.48535373  0.96165869     2.10000
Zr412      Zr  0.17831152  0.48629050  0.98469850     1.78800
O413        O  0.27807037  0.48253479  0.94278453    -0.92900
O414        O  0.13813346  0.48999724  0.99197120    -0.40700
O415        O  0.20337485  0.47642518  0.94936585    -0.77300
O416        O  0.17068270  0.49845323  0.94042727    -0.96000
O417        O  0.19767893  0.52364161  0.90718344    -0.89300
O418        O  0.23458361  0.49902693  0.91809725    -0.92200
C419        C  0.18542857  0.50701622  0.04838987     1.01600
C420        C  0.26838900  0.50952510  0.01173940     1.14500
C421        C  0.17499554  0.56437170  0.99175274     1.05300
O422        O  0.13315761  0.53089559  0.95927452    -0.94300
O423        O  0.14542034  0.52215896  0.90694562    -0.90100
O424        O  0.16124172  0.49759956  0.88528196    -0.83200
C425        C  0.14516462  0.50912442  0.88931069     1.11900
O426        O  0.25490004  0.55943479  0.93587539    -0.96300
Zr427      Zr  0.23471863  0.53206535  0.92021256     1.88900
O428        O  0.21768074  0.49865395  0.86387644    -0.73000
O429        O  0.16625403  0.55837088  0.91229015    -0.52200
O430        O  0.22511344  0.55915400  0.89309295    -0.96900
O431        O  0.27526819  0.52939364  0.91583213    -0.54100
O432        O  0.23998739  0.52322466  0.87344432    -0.73500
C433        C  0.23257931  0.51072324  0.85725507     0.98900
O434        O  0.17714804  0.46926034  0.87620976    -0.62300
O435        O  0.24504509  0.45922003  0.99261725    -0.57100
O436        O  0.21481447  0.46016924  0.90352036    -0.93800
O437        O  0.24155778  0.45647948  0.93564269    -0.92200
O438        O  0.19159836  0.45822884  0.00704589    -0.92600
O439        O  0.15543000  0.45890626  0.97650266    -0.91300
C440        C  0.23005951  0.45053526  0.91535822     1.17700
H441        H  0.21953010  0.49027904  0.01401523     0.33700
H442        H  0.15615997  0.49389525  0.93565438     0.44500
H443        H  0.24548006  0.49425794  0.90545983     0.38000
H444        H  0.20860301  0.55538164  0.95464546     0.34500
H445        H  0.13661026  0.50200843  0.00155341     0.26300
H446        H  0.17521913  0.56839600  0.92071370     0.32200
H447        H  0.21641467  0.56723056  0.90546136     0.38200
H448        H  0.19511183  0.46202280  0.02589626     0.32600
H449        H  0.26084948  0.45534675  0.99038130     0.31500
H450        H  0.28339753  0.47019910  0.94881943     0.33200
H451        H  0.27771283  0.51806905  0.90484873     0.32100
H452        H  0.15663174  0.45673554  0.95670740     0.36100
H453        H  0.18820834  0.46476268  0.86275525     0.28900
H454        H  0.22582877  0.55578753  0.03757922     0.33100
H455        H  0.25160844  0.56016404  0.95555085     0.36000
H456        H  0.24442876  0.46456012  0.01111577     0.28600
H457        H  0.17356981  0.45834701  0.88760601     0.41400
H458        H  0.12658535  0.54291867  0.95375208     0.31500
H459        H  0.13163618  0.49228327  0.97378547     0.39100
H460        H  0.28059859  0.52601056  0.93422009     0.31000
H461        H  0.15049044  0.56218812  0.91505214     0.31000
H462        H  0.23419288  0.56401496  0.00982748     0.31300
Zr463      Zr  0.20622450  0.23485770  0.78957423     2.17500
O464        O  0.21949043  0.20741394  0.76560317    -0.51100
O465        O  0.18707076  0.24337746  0.74788090    -0.74300
O466        O  0.18555901  0.20556202  0.78788712    -0.81100
O467        O  0.25607370  0.26652320  0.78147899    -0.82800
O468        O  0.16116201  0.20565289  0.82322116    -0.78400
O469        O  0.24125539  0.23976313  0.76524452    -0.90100
O470        O  0.16424067  0.26769646  0.75685378    -0.76000
O471        O  0.17020001  0.24324095  0.80639265    -0.85500
O472        O  0.20462564  0.26797428  0.78770521    -0.85200
O473        O  0.20494633  0.22270962  0.83491618    -0.72000
O474        O  0.23618668  0.24612586  0.81782065    -0.84100
Zr475      Zr  0.19698985  0.27549357  0.88028221     2.26400
Zr476      Zr  0.16931857  0.23209838  0.85219135     2.06300
Zr477      Zr  0.23328979  0.27930514  0.81733593     2.10000
Zr478      Zr  0.16888517  0.27616733  0.80480018     1.78800
O479        O  0.27249071  0.28666057  0.82575369    -0.92900
O480        O  0.12891904  0.26990665  0.80071793    -0.40700
O481        O  0.19750716  0.28780021  0.83475161    -0.77300
O482        O  0.16687588  0.26528283  0.85090144    -0.96000
O483        O  0.19883514  0.24249040  0.88148431    -0.89300
O484        O  0.23279521  0.26743910  0.86259172    -0.92200
C485        C  0.17266487  0.25557542  0.74055511     1.01600
C486        C  0.25652527  0.25227134  0.76585210     1.14500
C487        C  0.16959579  0.19827651  0.80176964     1.05300
O488        O  0.12869035  0.23008241  0.84910149    -0.94300
O489        O  0.15000484  0.24096510  0.89347132    -0.90100
O490        O  0.16344710  0.26897898  0.90682138    -0.83200
C491        C  0.14963932  0.25541460  0.90870510     1.11900
O492        O  0.25593099  0.20846319  0.84514825    -0.96300
Zr493      Zr  0.23436082  0.23441897  0.86301418     1.88900
O494        O  0.21953048  0.26759799  0.92064803    -0.73000
O495        O  0.17250393  0.20412286  0.87958374    -0.52200
O496        O  0.22825771  0.20621734  0.88912662    -0.96900
O497        O  0.27475476  0.23928059  0.86483124    -0.54100
O498        O  0.24188513  0.24341683  0.90915127    -0.73500
C499        C  0.23502380  0.25570264  0.92597656     0.98900
O500        O  0.18368789  0.30181246  0.90685536    -0.62300
O501        O  0.23076586  0.30311972  0.78234718    -0.57100
O502        O  0.21430907  0.30613343  0.88013289    -0.93800
O503        O  0.23651962  0.30820978  0.84291287    -0.92200
O504        O  0.17638367  0.30510028  0.78097809    -0.92600
O505        O  0.14510114  0.30166291  0.81968959    -0.91300
C506        C  0.22786302  0.31503009  0.86465684     1.17700
H507        H  0.20703291  0.27258651  0.76953715     0.33700
H508        H  0.15256365  0.26932111  0.85786997     0.44500
H509        H  0.24468598  0.27290475  0.87323247     0.38000
H510        H  0.20601404  0.20933908  0.83463411     0.34500
H511        H  0.12791972  0.25865934  0.78923653     0.26300
H512        H  0.17846101  0.20842803  0.89726157     0.32200
H513        H  0.24206967  0.20470722  0.90005810     0.38200
H514        H  0.16574451  0.30518115  0.76554194     0.32600
H515        H  0.22556015  0.31442598  0.79185768     0.31500
H516        H  0.27945733  0.27466032  0.83064312     0.33200
H517        H  0.27679734  0.25142048  0.87390361     0.32100
H518        H  0.15163889  0.30561317  0.83725469     0.36100
H519        H  0.18201260  0.29733883  0.92575575     0.28900
H520        H  0.22031634  0.21102059  0.74624636     0.33100
H521        H  0.25196339  0.20797836  0.82563196     0.36000
H522        H  0.24651249  0.30581190  0.77744445     0.28600
H523        H  0.16830700  0.30434770  0.90032387     0.41400
H524        H  0.12543389  0.23015750  0.82939510     0.31500
H525        H  0.12429625  0.26567964  0.81899039     0.39100
H526        H  0.27921518  0.24151537  0.84575618     0.31000
H527        H  0.15682634  0.20051966  0.88345597     0.31000
H528        H  0.23517723  0.20542482  0.77145754     0.31300
Zr529      Zr  0.35555617  0.23460310  0.15364410     2.17500
O530        O  0.37363785  0.21228811  0.12351187    -0.51100
O531        O  0.33395014  0.24143862  0.11212632    -0.74300
O532        O  0.33728224  0.20423920  0.15378227    -0.81100
O533        O  0.40836044  0.26384600  0.15233032    -0.82800
O534        O  0.31136208  0.20291966  0.18719539    -0.78400
O535        O  0.39205832  0.23866145  0.13284018    -0.90100
O536        O  0.31319117  0.26700988  0.12086879    -0.76000
O537        O  0.31909067  0.24410509  0.16674212    -0.85500
O538        O  0.35571851  0.26775510  0.15239779    -0.85200
O539        O  0.35181393  0.22233568  0.19908164    -0.72000
O540        O  0.38375851  0.24459849  0.18564204    -0.84100
Zr541      Zr  0.34173526  0.27598801  0.24325487     2.26400
Zr542      Zr  0.31503378  0.23228712  0.21170220     2.06300
Zr543      Zr  0.38322089  0.27772553  0.18475113     2.10000
Zr544      Zr  0.31944643  0.27714838  0.16677956     1.78800
O545        O  0.42217665  0.28220132  0.19803312    -0.92900
O546        O  0.27903248  0.27329563  0.16293622    -0.40700
O547        O  0.34691755  0.28812525  0.19834719    -0.77300
O548        O  0.31359733  0.26559464  0.21155573    -0.96000
O549        O  0.34217761  0.24279592  0.24411504    -0.89300
O550        O  0.37848617  0.26672031  0.23016944    -0.92200
C551        C  0.31963164  0.25391769  0.10513339     1.01600
C552        C  0.40844470  0.24993228  0.13610320     1.14500
C553        C  0.32188842  0.19569125  0.16706025     1.05300
O554        O  0.27652886  0.23221515  0.19533221    -0.94300
O555        O  0.29426779  0.24228292  0.25074603    -0.90100
O556        O  0.30826672  0.26853549  0.26968842    -0.83200
C557        C  0.29390204  0.25526458  0.26850757     1.11900
O558        O  0.40097221  0.20664710  0.21923890    -0.96300
Zr559      Zr  0.37879292  0.23379584  0.23119520     1.88900
O560        O  0.36078414  0.26899098  0.28576072    -0.73000
O561        O  0.30768821  0.20717351  0.24349165    -0.52200
O562        O  0.37073996  0.20641704  0.25842334    -0.96900
O563        O  0.41896980  0.23906039  0.23549429    -0.54100
O564        O  0.38132420  0.24297129  0.27871032    -0.73500
C565        C  0.37386582  0.25603637  0.29401463     0.98900
O566        O  0.31993531  0.30073674  0.26423355    -0.62300
O567        O  0.38510364  0.30177731  0.15015025    -0.57100
O568        O  0.36245544  0.30558181  0.24472723    -0.93800
O569        O  0.38813707  0.30599749  0.21076878    -0.92200
O570        O  0.32896667  0.30418826  0.13951970    -0.92600
O571        O  0.29859157  0.30467950  0.18029557    -0.91300
C572        C  0.37848508  0.31338499  0.23137098     1.17700
H573        H  0.35912937  0.27225900  0.13441858     0.33700
H574        H  0.29900061  0.26984228  0.21725790     0.44500
H575        H  0.38970832  0.27194416  0.24204787     0.38000
H576        H  0.35313533  0.20899790  0.19943145     0.34500
H577        H  0.27464364  0.28119403  0.14737653     0.26300
H578        H  0.29310588  0.20193066  0.23773651     0.32200
H579        H  0.35808955  0.20026525  0.24907306     0.38200
H580        H  0.31599624  0.30591904  0.12722904     0.32600
H581        H  0.37545049  0.31187756  0.15712852     0.31500
H582        H  0.42830206  0.29104357  0.18458390     0.33200
H583        H  0.42049103  0.24945557  0.24850557     0.32100
H584        H  0.30737162  0.31002218  0.19546853     0.36100
H585        H  0.32935175  0.30554982  0.27923022     0.28900
H586        H  0.36186440  0.20810706  0.11071838     0.33100
H587        H  0.40373934  0.20796621  0.19951529     0.36000
H588        H  0.40052088  0.30674898  0.15153051     0.28600
H589        H  0.31943447  0.31085861  0.25067463     0.41400
H590        H  0.26914857  0.24257298  0.20504312     0.31500
H591        H  0.27699009  0.26045679  0.15622997     0.39100
H592        H  0.42351619  0.24435886  0.21779893     0.31000
H593        H  0.31883230  0.19748365  0.23906411     0.31000
H594        H  0.37711345  0.20130536  0.13482374     0.31300
Zr595      Zr  0.34928288  0.01922148  0.13174733     2.17500
O596        O  0.36795304  0.04109409  0.16208195    -0.51100
O597        O  0.32445865  0.01272430  0.17029217    -0.74300
O598        O  0.33178844  0.05005781  0.13137138    -0.81100
O599        O  0.39916567  0.98518111  0.13941494    -0.82800
O600        O  0.30860622  0.05336987  0.09531333    -0.78400
O601        O  0.38333443  0.01124434  0.15661471    -0.90100
O602        O  0.30202774  0.98845833  0.15919369    -0.76000
O603        O  0.31333602  0.01240803  0.11369707    -0.85500
O604        O  0.34630060  0.98620157  0.13183885    -0.85200
O605        O  0.35020475  0.03254687  0.08694431    -0.72000
O606        O  0.37893473  0.00799886  0.10293950    -0.84100
Zr607      Zr  0.33915960  0.98073797  0.03940311     2.26400
Zr608      Zr  0.31407260  0.02521288  0.06890633     2.06300
Zr609      Zr  0.37529894  0.97497521  0.10245497     2.10000
Zr610      Zr  0.31052386  0.97945120  0.11303633     1.78800
O611        O  0.41473294  0.96742409  0.09671370    -0.92900
O612        O  0.27025884  0.98514617  0.11405068    -0.40700
O613        O  0.33944640  0.96745480  0.08418786    -0.77300
O614        O  0.30951109  0.99210678  0.06817958    -0.96000
O615        O  0.34271488  0.01365143  0.03959612    -0.89300
O616        O  0.37531646  0.98733633  0.05741667    -0.92200
C617        C  0.30886786  0.00097767  0.17570737     1.01600
C618        C  0.39887269  0.99885671  0.15607210     1.14500
C619        C  0.31783085  0.05956021  0.11702639     1.05300
O620        O  0.27405560  0.03006225  0.07536787    -0.94300
O621        O  0.29476301  0.01688226  0.02783618    -0.90100
O622        O  0.30834583  0.99000876  0.01012078    -0.83200
C623        C  0.29452716  0.00363446  0.01046097     1.11900
O624        O  0.40482548  0.04318941  0.07502717    -0.96300
Zr625      Zr  0.37867781  0.02014280  0.05765345     1.88900
O626        O  0.35928574  0.99015195  0.99863601    -0.73000
O627        O  0.31865600  0.05145143  0.03831790    -0.52200
O628        O  0.37437391  0.05029932  0.03603127    -0.96900
O629        O  0.41793268  0.01118918  0.05411511    -0.54100
O630        O  0.38226282  0.01414463  0.00901012    -0.73500
C631        C  0.37365408  0.00264597  0.99199502     0.98900
O632        O  0.31937438  0.95406743  0.02058365    -0.62300
O633        O  0.36987784  0.94899585  0.13342485    -0.57100
O634        O  0.35960441  0.95164761  0.03344382    -0.93800
O635        O  0.38023695  0.94878282  0.07190731    -0.92200
O636        O  0.31596836  0.95145581  0.13992017    -0.92600
O637        O  0.28875563  0.95371392  0.09480831    -0.91300
C638        C  0.37359191  0.94288398  0.04859761     1.17700
H639        H  0.34789589  0.98124065  0.14995285     0.33700
H640        H  0.29514007  0.98881793  0.06055403     0.44500
H641        H  0.38694546  0.98177843  0.04647198     0.38000
H642        H  0.35243488  0.04578177  0.08772536     0.34500
H643        H  0.26843013  0.99650377  0.12514146     0.26300
H644        H  0.30383093  0.05760287  0.03816801     0.32200
H645        H  0.38669713  0.05095900  0.02263067     0.38200
H646        H  0.30167509  0.94976329  0.14980522     0.32600
H647        H  0.37670986  0.93821345  0.12412267     0.31500
H648        H  0.41671668  0.95547466  0.10632257     0.33200
H649        H  0.41887933  0.00338952  0.03760705     0.32100
H650        H  0.29902056  0.94741542  0.08198824     0.36100
H651        H  0.30349929  0.95571955  0.02587825     0.28900
H652        H  0.35619821  0.04568277  0.17456907     0.33100
H653        H  0.39764701  0.04795606  0.09175234     0.36000
H654        H  0.38003511  0.95154381  0.14888373     0.28600
H655        H  0.31962107  0.95577150  0.00064253     0.41400
H656        H  0.27149651  0.02771542  0.09492231     0.31500
H657        H  0.26631633  0.98909424  0.09540639     0.39100
H658        H  0.42033339  0.00244448  0.06933556     0.31000
H659        H  0.32861302  0.06020527  0.04804731     0.31000
H660        H  0.37197421  0.05189434  0.15066889     0.31300
Zr661      Zr  0.44551448  0.23664417  0.63226229     2.17500
O662        O  0.42752720  0.21866104  0.66794548    -0.51100
O663        O  0.46884909  0.24395603  0.67211911    -0.74300
O664        O  0.45988613  0.20473175  0.63392213    -0.81100
O665        O  0.39370384  0.26970712  0.63175315    -0.82800
O666        O  0.48502405  0.20174120  0.59980874    -0.78400
O667        O  0.40844941  0.24363898  0.65026748    -0.90100
O668        O  0.49321229  0.26644041  0.65990943    -0.76000
O669        O  0.48212821  0.24295023  0.61577592    -0.85500
O670        O  0.44890465  0.26965978  0.63159586    -0.85200
O671        O  0.44600228  0.22254734  0.58775754    -0.72000
O672        O  0.41728098  0.24780009  0.60152959    -0.84100
Zr673      Zr  0.45909756  0.27336040  0.53908622     2.26400
Zr674      Zr  0.48284284  0.22940748  0.57142977     2.06300
Zr675      Zr  0.42130351  0.28069635  0.60004142     2.10000
Zr676      Zr  0.48521141  0.27589186  0.61411202     1.78800
O677        O  0.38327779  0.29055220  0.58941539    -0.92900
O678        O  0.52559659  0.27099742  0.61668836    -0.40700
O679        O  0.45772877  0.28756297  0.58315130    -0.77300
O680        O  0.48754654  0.26255583  0.56997352    -0.96000
O681        O  0.45511226  0.24044742  0.54009234    -0.89300
O682        O  0.42233454  0.26760598  0.55547131    -0.92200
C683        C  0.48529654  0.25496172  0.67721305     1.01600
C684        C  0.39275045  0.25574135  0.64771226     1.14500
C685        C  0.47458227  0.19534778  0.62064633     1.05300
O686        O  0.52170155  0.22178119  0.58134400    -0.94300
O687        O  0.50768319  0.23823259  0.53497417    -0.90100
O688        O  0.49187358  0.26315988  0.51402528    -0.83200
C689        C  0.50735428  0.25098390  0.51685438     1.11900
O690        O  0.39270285  0.21161518  0.57479385    -0.96300
Zr691      Zr  0.41842089  0.23480416  0.55702172     1.88900
O692        O  0.43721868  0.26454983  0.49912231    -0.73000
O693        O  0.47926342  0.20406294  0.53902989    -0.52200
O694        O  0.42151985  0.20491913  0.53427787    -0.96900
O695        O  0.37923401  0.24422526  0.55450765    -0.54100
O696        O  0.41346129  0.24106321  0.50899466    -0.73500
C697        C  0.42209410  0.25268034  0.49235052     0.98900
O698        O  0.47735845  0.29801171  0.51332420    -0.62300
O699        O  0.42449714  0.30495276  0.63430443    -0.57100
O700        O  0.44352509  0.30461887  0.53519922    -0.93800
O701        O  0.41985724  0.30766847  0.57099839    -0.92200
O702        O  0.47760748  0.30438442  0.63911970    -0.92600
O703        O  0.50806715  0.30163829  0.59813092    -0.91300
C704        C  0.42905800  0.31370133  0.54920671     1.17700
H705        H  0.44675253  0.27481777  0.64945275     0.33700
H706        H  0.50221642  0.26602984  0.56359149     0.44500
H707        H  0.41118194  0.27327991  0.54390141     0.38000
H708        H  0.44337682  0.20937738  0.58851012     0.34500
H709        H  0.52744671  0.25923301  0.62679621     0.26300
H710        H  0.49403450  0.19781834  0.53943238     0.32200
H711        H  0.43277007  0.20688198  0.51980843     0.38200
H712        H  0.47487088  0.30044353  0.65807589     0.32600
H713        H  0.43032019  0.31586995  0.62438457     0.31500
H714        H  0.38112195  0.30220152  0.59974933     0.33200
H715        H  0.37835041  0.25304299  0.53914567     0.32100
H716        H  0.50468815  0.30251758  0.57848569     0.36100
H717        H  0.49309768  0.29833882  0.51969632     0.28900
H718        H  0.43987444  0.21374092  0.67924630     0.33100
H719        H  0.39118799  0.21473617  0.59429122     0.36000
H720        H  0.40883882  0.30825775  0.63881857     0.28600
H721        H  0.47807613  0.29363237  0.49428148     0.41400
H722        H  0.52570360  0.22981901  0.59690707     0.31500
H723        H  0.53030369  0.26792639  0.59796713     0.39100
H724        H  0.37685355  0.25198061  0.57085533     0.31000
H725        H  0.46894510  0.19514960  0.54780276     0.31000
H726        H  0.42099034  0.20772729  0.65872383     0.31300
Zr727      Zr  0.45184757  0.01876328  0.65643856     2.17500
O728        O  0.43071467  0.03962167  0.62722865    -0.51100
O729        O  0.47457025  0.00999151  0.61714760    -0.74300
O730        O  0.46911050  0.04940181  0.65165146    -0.81100
O731        O  0.40194019  0.98747710  0.65299530    -0.82800
O732        O  0.49221376  0.05344572  0.68763635    -0.78400
O733        O  0.41762442  0.01232981  0.63214381    -0.90100
O734        O  0.49620375  0.98509105  0.62745995    -0.76000
O735        O  0.48835943  0.01191520  0.67267811    -0.85500
O736        O  0.45408407  0.98571688  0.65769947    -0.85200
O737        O  0.45265753  0.03326630  0.70044330    -0.72000
O738        O  0.42296808  0.00863950  0.68724789    -0.84100
Zr739      Zr  0.46417663  0.98239483  0.74963528     2.26400
Zr740      Zr  0.48930797  0.02602630  0.71667355     2.06300
Zr741      Zr  0.42583621  0.97566013  0.68888306     2.10000
Zr742      Zr  0.49028135  0.97883733  0.67509762     1.78800
O743        O  0.38642426  0.96995383  0.69838254    -0.92900
O744        O  0.53044733  0.98432257  0.67159885    -0.40700
O745        O  0.46218122  0.96782848  0.70579356    -0.77300
O746        O  0.49302530  0.99281983  0.71907408    -0.96000
O747        O  0.46148591  0.01536061  0.74797591    -0.89300
O748        O  0.42755975  0.98906084  0.73321624    -0.92200
C749        C  0.48910386  0.99749648  0.61100437     1.01600
C750        C  0.40172150  0.00068076  0.63547723     1.14500
C751        C  0.48298471  0.05918140  0.66552929     1.05300
O752        O  0.52915650  0.02942743  0.70742486    -0.94300
O753        O  0.50933908  0.01970417  0.75826251    -0.90100
O754        O  0.49422317  0.99399913  0.77780905    -0.83200
C755        C  0.50835549  0.00739871  0.77699389     1.11900
O756        O  0.40101565  0.04635221  0.71388772    -0.96300
Zr757      Zr  0.42504118  0.02192747  0.73174581     1.88900
O758        O  0.44377708  0.99057149  0.79077808    -0.73000
O759        O  0.48716226  0.05399485  0.74435673    -0.52200
O760        O  0.43206128  0.05140134  0.75439029    -0.96900
O761        O  0.38507684  0.01609803  0.73740884    -0.54100
O762        O  0.42089507  0.01456200  0.77982815    -0.73500
C763        C  0.42899672  0.00282917  0.79687566     0.98900
O764        O  0.48825288  0.95936486  0.77116015    -0.62300
O765        O  0.42510334  0.94891642  0.65856445    -0.57100
O766        O  0.44480920  0.95273946  0.75611436    -0.93800
O767        O  0.42184371  0.94946820  0.71962750    -0.92200
O768        O  0.48232512  0.94941933  0.65275563    -0.92600
O769        O  0.51397612  0.95393974  0.69219645    -0.91300
C770        C  0.43002316  0.94379168  0.74232254     1.17700
H771        H  0.45181360  0.98046079  0.63989841     0.33700
H772        H  0.50755785  0.98963948  0.72637092     0.44500
H773        H  0.41623966  0.98379219  0.74493053     0.38000
H774        H  0.45055118  0.04650949  0.69896279     0.34500
H775        H  0.53500578  0.97816925  0.65449243     0.26300
H776        H  0.48407788  0.04960157  0.76302485     0.32200
H777        H  0.44105147  0.04818565  0.77061968     0.38200
H778        H  0.49469393  0.94771466  0.63962326     0.32600
H779        H  0.42927781  0.95368859  0.64043181     0.31500
H780        H  0.38062252  0.98201265  0.70494201     0.33200
H781        H  0.38024447  0.02500712  0.75155447     0.32100
H782        H  0.50703844  0.95032486  0.70965399     0.36100
H783        H  0.48003959  0.95523353  0.78753064     0.28900
H784        H  0.44088655  0.04238911  0.61190782     0.33100
H785        H  0.39881010  0.04304804  0.69455008     0.36000
H786        H  0.43799449  0.94121356  0.66428550     0.28600
H787        H  0.48820719  0.94854224  0.75878331     0.41400
H788        H  0.53012237  0.03110977  0.68751246     0.31500
H789        H  0.53183547  0.99774150  0.66772461     0.39100
H790        H  0.38407675  0.00385882  0.74641002     0.31000
H791        H  0.50271965  0.05871901  0.74506164     0.31000
H792        H  0.42899747  0.05140586  0.63736103     0.31300
Zr793      Zr  0.58836491  0.02709245  0.28958395     2.17500
O794        O  0.56778308  0.04992429  0.26299169    -0.51100
O795        O  0.60624607  0.01758922  0.24713038    -0.74300
O796        O  0.60869832  0.05664310  0.28386964    -0.81100
O797        O  0.53699358  0.99616738  0.29095171    -0.82800
O798        O  0.63459870  0.05722825  0.31738291    -0.78400
O799        O  0.55144928  0.02138755  0.26972981    -0.90100
O800        O  0.62971847  0.99372112  0.25664522    -0.76000
O801        O  0.62536773  0.01846473  0.30274335    -0.85500
O802        O  0.58943265  0.99391381  0.29037639    -0.85200
O803        O  0.59344003  0.04066475  0.33399800    -0.72000
O804        O  0.56129003  0.01748930  0.32288253    -0.84100
Zr805      Zr  0.60512848  0.98926072  0.38202128     2.26400
Zr806      Zr  0.63033620  0.03113007  0.34714715     2.06300
Zr807      Zr  0.56305898  0.98431639  0.32405031     2.10000
Zr808      Zr  0.62620534  0.98551024  0.30416399     1.78800
O809        O  0.52569772  0.97954710  0.34260781    -0.92900
O810        O  0.66629339  0.98927710  0.29642408    -0.40700
O811        O  0.59996002  0.97567647  0.33779592    -0.77300
O812        O  0.63252858  0.99809807  0.34849342    -0.96000
O813        O  0.60391847  0.02222087  0.38119193    -0.89300
O814        O  0.56800661  0.99709959  0.36836981    -0.92200
C815        C  0.62102555  0.00552135  0.24022097     1.01600
C816        C  0.53576400  0.00948945  0.27375679     1.14500
C817        C  0.62515921  0.06433143  0.29648689     1.05300
O818        O  0.66914187  0.03208081  0.33196865    -0.94300
O819        O  0.65446937  0.02255617  0.38419219    -0.90100
O820        O  0.64118479  0.99635005  0.40393848    -0.83200
C821        C  0.65606295  0.00913511  0.40112359     1.11900
O822        O  0.54816508  0.05942278  0.35810310    -0.96300
Zr823      Zr  0.56701291  0.03012465  0.36731381     1.88900
O824        O  0.58144788  0.99556933  0.42188688    -0.73000
O825        O  0.63453592  0.05832427  0.37612043    -0.52200
O826        O  0.57927621  0.05442642  0.39834234    -0.96900
O827        O  0.52629770  0.02800768  0.36745934    -0.54100
O828        O  0.55774668  0.01922219  0.41228374    -0.73500
C829        C  0.56515225  0.00652318  0.42807154     0.98900
O830        O  0.62278350  0.96852634  0.41480006    -0.62300
O831        O  0.55842986  0.96027973  0.28972069    -0.57100
O832        O  0.59172953  0.95749449  0.37827874    -0.93800
O833        O  0.56375739  0.95462761  0.34743673    -0.92200
O834        O  0.61563244  0.95676862  0.28152718    -0.92600
O835        O  0.64880587  0.95931942  0.31925215    -0.91300
C836        C  0.57675586  0.94795789  0.36574236     1.17700
H837        H  0.58566201  0.98871267  0.27288635     0.33700
H838        H  0.64730993  0.99402777  0.35372883     0.44500
H839        H  0.55674009  0.99175319  0.38000650     0.38000
H840        H  0.59249265  0.05401954  0.33310450     0.34500
H841        H  0.66759665  0.00032035  0.28459718     0.26300
H842        H  0.65003374  0.06266938  0.37285144     0.32200
H843        H  0.58674249  0.06373094  0.38668721     0.38200
H844        H  0.62510091  0.95628687  0.26505116     0.32600
H845        H  0.56994719  0.95084981  0.29405304     0.31500
H846        H  0.52085560  0.96739214  0.33530299     0.33200
H847        H  0.52311096  0.01511769  0.37318827     0.32100
H848        H  0.63959990  0.95319178  0.33335728     0.36100
H849        H  0.61039384  0.96255782  0.42488951     0.28900
H850        H  0.57780985  0.05344662  0.24784435     0.33100
H851        H  0.55059431  0.06162743  0.33849213     0.36000
H852        H  0.54401317  0.95424366  0.29422269     0.28600
H853        H  0.62967659  0.95845000  0.40397225     0.41400
H854        H  0.67557886  0.04321746  0.34078852     0.31500
H855        H  0.67248714  0.99337442  0.31408702     0.39100
H856        H  0.52192763  0.02833134  0.34806904     0.31000
H857        H  0.62494407  0.06795817  0.36775649     0.31000
H858        H  0.56664527  0.06108697  0.27462281     0.31300
Zr859      Zr  0.59274455  0.73500269  0.49822835     2.17500
O860        O  0.56976221  0.71123419  0.51967565    -0.51100
O861        O  0.61260782  0.74411326  0.53965490    -0.74300
O862        O  0.61254205  0.70555227  0.50548450    -0.81100
O863        O  0.54411631  0.76766799  0.49949206    -0.82800
O864        O  0.63684450  0.70292325  0.47033692    -0.78400
O865        O  0.55838002  0.74277894  0.52176354    -0.90100
O866        O  0.63673289  0.76752465  0.53039058    -0.76000
O867        O  0.62978933  0.74234445  0.48442219    -0.85500
O868        O  0.59495997  0.76809627  0.49702012    -0.85200
O869        O  0.59633674  0.72103223  0.45408797    -0.72000
O870        O  0.56544921  0.74549023  0.46571788    -0.84100
Zr871      Zr  0.60951193  0.77150554  0.40539480     2.26400
Zr872      Zr  0.63337878  0.72910586  0.44021363     2.06300
Zr873      Zr  0.56864421  0.77850260  0.46370961     2.10000
Zr874      Zr  0.63188395  0.77531428  0.48283497     1.78800
O875        O  0.53013950  0.78344721  0.44900532    -0.92900
O876        O  0.67186990  0.76987291  0.48890721    -0.40700
O877        O  0.60574663  0.78602298  0.44928205    -0.77300
O878        O  0.63691527  0.76208812  0.43860534    -0.96000
O879        O  0.60663856  0.73857519  0.40680953    -0.89300
O880        O  0.57220506  0.76503428  0.41959960    -0.92200
C881        C  0.62788571  0.75579373  0.54670581     1.01600
C882        C  0.54316773  0.75505212  0.51788843     1.14500
C883        C  0.62808284  0.69700668  0.49245095     1.05300
O884        O  0.67263439  0.72907586  0.45373795    -0.94300
O885        O  0.65573666  0.73618075  0.40088208    -0.90100
O886        O  0.64384533  0.76315741  0.38193596    -0.83200
C887        C  0.65774794  0.74969385  0.38416780     1.11900
O888        O  0.54757453  0.70551165  0.43615711    -0.96300
Zr889      Zr  0.56958085  0.73214076  0.42162970     1.88900
O890        O  0.58848619  0.76401130  0.36422475    -0.73000
O891        O  0.63724293  0.70022757  0.41496596    -0.52200
O892        O  0.57700372  0.70466430  0.39432554    -0.96900
O893        O  0.52928505  0.73754576  0.41983774    -0.54100
O894        O  0.56359266  0.74142656  0.37503799    -0.73500
C895        C  0.57218339  0.75309524  0.35840200     0.98900
O896        O  0.63193758  0.79202717  0.37701119    -0.62300
O897        O  0.56723611  0.80495256  0.49455851    -0.57100
O898        O  0.59339355  0.80236847  0.40147407    -0.93800
O899        O  0.56881683  0.80653470  0.43607190    -0.92200
O900        O  0.62215895  0.80323488  0.50807861    -0.92600
O901        O  0.65408555  0.80178862  0.46803148    -0.91300
C902        C  0.57929033  0.81220183  0.41481578     1.17700
H903        H  0.59171107  0.77338069  0.51458098     0.33700
H904        H  0.65180297  0.76549628  0.43282070     0.44500
H905        H  0.56125075  0.77040871  0.40747485     0.38000
H906        H  0.59476777  0.70773653  0.45539631     0.34500
H907        H  0.67652496  0.77884854  0.50305617     0.26300
H908        H  0.63322865  0.70342154  0.39603148     0.32200
H909        H  0.58797048  0.69742224  0.40505544     0.38200
H910        H  0.63532149  0.80568852  0.51979272     0.32600
H911        H  0.55271172  0.81102610  0.49064999     0.31500
H912        H  0.52384038  0.79230396  0.46234243     0.33200
H913        H  0.52744789  0.74889436  0.40875181     0.32100
H914        H  0.66087507  0.79783685  0.45063219     0.36100
H915        H  0.62245486  0.79458586  0.36095445     0.28900
H916        H  0.57821124  0.70698124  0.53582053     0.33100
H917        H  0.54539385  0.70743041  0.45589049     0.36000
H918        H  0.56532831  0.79958034  0.51289866     0.28600
H919        H  0.63321075  0.80398763  0.38677855     0.41400
H920        H  0.67252063  0.72612770  0.47336629     0.31500
H921        H  0.67283808  0.75765038  0.49798383     0.39100
H922        H  0.52518466  0.74145065  0.43846116     0.31000
H923        H  0.65358435  0.69787411  0.41445142     0.31000
H924        H  0.56972322  0.70057856  0.50698159     0.31300
Zr925      Zr  0.71731310  0.02589831  0.99892168     2.17500
O926        O  0.74106439  0.04990847  0.01865584    -0.51100
O927        O  0.69916876  0.01820563  0.04180478    -0.74300
O928        O  0.69573647  0.05411527  0.00759938    -0.81100
O929        O  0.76588179  0.99097926  0.99919201    -0.82800
O930        O  0.66789826  0.05575389  0.97620993    -0.78400
O931        O  0.75099414  0.01558888  0.02191335    -0.90100
O932        O  0.67603021  0.99419112  0.03222699    -0.76000
O933        O  0.68009222  0.01766554  0.98705388    -0.85500
O934        O  0.71637901  0.99288026  0.99666789    -0.85200
O935        O  0.71092747  0.04053862  0.95575575    -0.72000
O936        O  0.74395643  0.01694117  0.96471042    -0.84100
Zr937      Zr  0.69792735  0.99025523  0.90586836     2.26400
Zr938      Zr  0.67379095  0.03136358  0.94366430     2.06300
Zr939      Zr  0.74164439  0.98384141  0.96136835     2.10000
Zr940      Zr  0.67933485  0.98484829  0.98483088     1.78800
O941        O  0.77936165  0.98311827  0.94265388    -0.92900
O942        O  0.63927682  0.98819930  0.99322730    -0.40700
O943        O  0.70422972  0.97537431  0.94911546    -0.77300
O944        O  0.67175247  0.99822215  0.94135437    -0.96000
O945        O  0.69944701  0.02320364  0.90837389    -0.89300
O946        O  0.73550512  0.99779631  0.91797674    -0.92200
C947        C  0.68429627  0.00624179  0.04869131     1.01600
C948        C  0.76586989  0.00292355  0.01846152     1.14500
C949        C  0.67831689  0.06181940  0.99710493     1.05300
O950        O  0.63504900  0.03638828  0.95663096    -0.94300
O951        O  0.64651017  0.02282311  0.91012356    -0.90100
O952        O  0.66097085  0.99799424  0.88775929    -0.83200
C953        C  0.64540575  0.00992652  0.89237161     1.11900
O954        O  0.75632166  0.05890335  0.93495457    -0.96300
Zr955      Zr  0.73680129  0.03071269  0.92138071     1.88900
O956        O  0.71745529  0.99900120  0.86379914    -0.73000
O957        O  0.67492213  0.05871612  0.91469056    -0.52200
O958        O  0.72937886  0.05822755  0.89416291    -0.96900
O959        O  0.77721785  0.02609627  0.91893936    -0.54100
O960        O  0.74124792  0.02241983  0.87415637    -0.73500
C961        C  0.73278024  0.01074468  0.85739328     0.98900
O962        O  0.67801742  0.97122196  0.87279408    -0.62300
O963        O  0.74782531  0.95617969  0.98893145    -0.57100
O964        O  0.71312193  0.95880616  0.90273852    -0.93800
O965        O  0.74116661  0.95611656  0.93356934    -0.92200
O966        O  0.69234632  0.95711741  0.00822999    -0.92600
O967        O  0.65711306  0.95766201  0.97325951    -0.91300
C968        C  0.72892293  0.94964964  0.91433738     1.17700
H969        H  0.72049220  0.98742521  0.01386215     0.33700
H970        H  0.65685049  0.99404694  0.93696187     0.44500
H971        H  0.74612118  0.99294849  0.90500807     0.38000
H972        H  0.71178918  0.05386881  0.95747707     0.34500
H973        H  0.63783290  0.99992933  0.00354712     0.26300
H974        H  0.67264102  0.05391873  0.89604791     0.32200
H975        H  0.71688876  0.05466909  0.88199004     0.38200
H976        H  0.68328495  0.95655605  0.02503256     0.32600
H977        H  0.74465914  0.96000648  0.00784383     0.31500
H978        H  0.78463083  0.97028867  0.94591658     0.33200
H979        H  0.78255606  0.03563214  0.90602040     0.32100
H980        H  0.65564844  0.95816994  0.95324785     0.36100
H981        H  0.68935537  0.96790098  0.85897269     0.28900
H982        H  0.73325156  0.05397798  0.03535836     0.33100
H983        H  0.75747941  0.05801383  0.95496424     0.36000
H984        H  0.73530295  0.94774276  0.98433978     0.28600
H985        H  0.67428456  0.95947023  0.88213786     0.41400
H986        H  0.63289621  0.02861848  0.97297641     0.31500
H987        H  0.63252913  0.99098463  0.97532461     0.39100
H988        H  0.77916690  0.01424742  0.90906017     0.31000
H989        H  0.66089569  0.06545646  0.91889977     0.31000
H990        H  0.73993222  0.06057299  0.00607348     0.31300
Zr991      Zr  0.71623025  0.73284450  0.79021818     2.17500
O992        O  0.73747480  0.70797868  0.76866995    -0.51100
O993        O  0.69613665  0.74100983  0.74892082    -0.74300
O994        O  0.69420505  0.70378355  0.78733525    -0.81100
O995        O  0.76485787  0.76628377  0.78268929    -0.82800
O996        O  0.67150344  0.70217356  0.82415590    -0.78400
O997        O  0.74961533  0.74021301  0.76422138    -0.90100
O998        O  0.67153400  0.76414108  0.75837115    -0.76000
O999        O  0.67998426  0.74067511  0.80618373    -0.85500
O1000       O  0.71407298  0.76599849  0.78920804    -0.85200
O1001       O  0.71488277  0.72039147  0.83531823    -0.72000
O1002       O  0.74517277  0.74460587  0.81957956    -0.84100
Zr1003     Zr  0.70464139  0.77276447  0.88077818     2.26400
Zr1004     Zr  0.67858723  0.72915684  0.85160930     2.06300
Zr1005     Zr  0.74212963  0.77781199  0.81939177     2.10000
Zr1006     Zr  0.67779890  0.77358291  0.80525426     1.78800
O1007       O  0.78106908  0.78309535  0.83221215    -0.92900
O1008       O  0.63788155  0.76684086  0.80266845    -0.40700
O1009       O  0.70571304  0.78564043  0.83571174    -0.77300
O1010       O  0.67534271  0.76220504  0.85086267    -0.96000
O1011       O  0.70722463  0.73992179  0.88182965    -0.89300
O1012       O  0.74108674  0.76563257  0.86452964    -0.92200
C1013       C  0.68053445  0.75238140  0.74212497     1.01600
C1014       C  0.76478550  0.75280590  0.76566062     1.14500
C1015       C  0.67903370  0.69566323  0.80178615     1.05300
O1016       O  0.63876005  0.72751432  0.84118802    -0.94300
O1017       O  0.65694234  0.73752829  0.89097703    -0.90100
O1018       O  0.67210755  0.76408035  0.90759356    -0.83200
C1019       C  0.65732107  0.75112142  0.90768347     1.11900
O1020       O  0.76698758  0.70653044  0.85200075    -0.96300
Zr1021     Zr  0.74335757  0.73263255  0.86471828     1.88900
O1022       O  0.72831697  0.76624427  0.92047161    -0.73000
O1023       O  0.67957071  0.70213885  0.88123500    -0.52200
O1024       O  0.73475881  0.70461823  0.89031664    -0.96900
O1025       O  0.78362428  0.73830188  0.86478178    -0.54100
O1026       O  0.75094813  0.74193726  0.91094778    -0.73500
C1027       C  0.74369422  0.75451069  0.92701808     0.98900
O1028       O  0.68419671  0.79514093  0.90851749    -0.62300
O1029       O  0.74248989  0.80185514  0.78467178    -0.57100
O1030       O  0.72076508  0.80373301  0.87934733    -0.93800
O1031       O  0.74307481  0.80779888  0.84274322    -0.92200
O1032       O  0.68453419  0.80124933  0.77809982    -0.92600
O1033       O  0.65510303  0.79981551  0.81988622    -0.91300
C1034       C  0.73359676  0.81377713  0.86446491     1.17700
H1035       H  0.71646145  0.77072215  0.77110791     0.33700
H1036       H  0.66085455  0.76598851  0.85763376     0.44500
H1037       H  0.75263839  0.77127633  0.87553035     0.38000
H1038       H  0.71626976  0.70704997  0.83481459     0.34500
H1039       H  0.63232370  0.77455883  0.78746631     0.26300
H1040       H  0.68345732  0.70710469  0.89938771     0.32200
H1041       H  0.74032365  0.70695986  0.90893274     0.38200
H1042       H  0.67136670  0.80217146  0.76592549     0.32600
H1043       H  0.72989661  0.81017393  0.78945332     0.31500
H1044       H  0.78362188  0.79652858  0.82942012     0.33200
H1045       H  0.78621264  0.74738949  0.87953253     0.32100
H1046       H  0.65947666  0.80186490  0.83905203     0.36100
H1047       H  0.69529743  0.80043610  0.92130372     0.28900
H1048       H  0.72792936  0.70344196  0.75361471     0.33100
H1049       H  0.76653150  0.70637851  0.83190823     0.36000
H1050       H  0.75612145  0.80922359  0.78851698     0.28600
H1051       H  0.68010390  0.80543865  0.89616867     0.41400
H1052       H  0.63292448  0.71746127  0.85288072     0.31500
H1053       H  0.63702962  0.75396977  0.79571466     0.39100
H1054       H  0.78643662  0.74537223  0.84790246     0.31000
H1055       H  0.66372498  0.69825310  0.88288914     0.31000
H1056       H  0.73770496  0.69774426  0.78206515     0.31300
Zr1057     Zr  0.85503525  0.74210193  0.15832949     2.17500
O1058       O  0.87736140  0.71876185  0.13483539    -0.51100
O1059       O  0.83398565  0.74963386  0.11726648    -0.74300
O1060       O  0.83551591  0.71236220  0.15411235    -0.81100
O1061       O  0.90255829  0.77751973  0.14865604    -0.82800
O1062       O  0.81335284  0.70945810  0.19123529    -0.78400
O1063       O  0.88741448  0.75094710  0.13209626    -0.90100
O1064       O  0.80842605  0.77151023  0.12923343    -0.76000
O1065       O  0.81861605  0.74962089  0.17432633    -0.85500
O1066       O  0.85243825  0.77507038  0.15759904    -0.85200
O1067       O  0.85403685  0.72910111  0.20333610    -0.72000
O1068       O  0.88421156  0.75309273  0.18796595    -0.84100
Zr1069     Zr  0.84362877  0.78171243  0.24909878     2.26400
Zr1070     Zr  0.81754465  0.73735779  0.21920136     2.06300
Zr1071     Zr  0.88085250  0.78614938  0.18757305     2.10000
Zr1072     Zr  0.81644025  0.78258808  0.17465907     1.78800
O1073       O  0.92100642  0.79088024  0.19247868    -0.92900
O1074       O  0.77595235  0.77826756  0.17440096    -0.40700
O1075       O  0.84485068  0.79469995  0.20430460    -0.77300
O1076       O  0.81417924  0.77050829  0.21972649    -0.96000
O1077       O  0.84592913  0.74863300  0.24930607    -0.89300
O1078       O  0.87985736  0.77403994  0.23270810    -0.92200
C1079       C  0.81723679  0.76025807  0.11212742     1.01600
C1080       C  0.90208636  0.76393355  0.13202471     1.14500
C1081       C  0.82150697  0.70326377  0.16876692     1.05300
O1082       O  0.77773929  0.73644166  0.20839600    -0.94300
O1083       O  0.79959594  0.74641153  0.26114110    -0.90100
O1084       O  0.81333392  0.77301471  0.27938092    -0.83200
C1085       C  0.79981192  0.75917873  0.27934486     1.11900
O1086       O  0.90669766  0.71665078  0.21674867    -0.96300
Zr1087     Zr  0.88224486  0.74116728  0.23337012     1.88900
O1088       O  0.86360148  0.77286743  0.29005360    -0.73000
O1089       O  0.81509852  0.70986076  0.24785057    -0.52200
O1090       O  0.87717701  0.71200494  0.25749708    -0.96900
O1091       O  0.92176053  0.74918598  0.23760922    -0.54100
O1092       O  0.88568662  0.74793653  0.28182305    -0.73500
C1093       C  0.87745032  0.76028193  0.29777682     0.98900
O1094       O  0.82165618  0.80711711  0.26801733    -0.62300
O1095       O  0.87510729  0.81309113  0.15845827    -0.57100
O1096       O  0.86653993  0.80999312  0.25390104    -0.93800
O1097       O  0.88880828  0.81205734  0.21679190    -0.92200
O1098       O  0.82326615  0.80955863  0.14605667    -0.92600
O1099       O  0.79578307  0.80979067  0.18991459    -0.91300
C1100       C  0.88181850  0.81810359  0.23967071     1.17700
H1101       H  0.85454445  0.77990420  0.13948332     0.33700
H1102       H  0.79976701  0.77404985  0.22698318     0.44500
H1103       H  0.89146339  0.77940895  0.24386894     0.38000
H1104       H  0.85572684  0.71578344  0.20258867     0.34500
H1105       H  0.77057654  0.78571953  0.15881691     0.26300
H1106       H  0.82761385  0.70183560  0.24184452     0.32200
H1107       H  0.86404620  0.71411621  0.26936845     0.38200
H1108       H  0.81416056  0.80750447  0.12951645     0.32600
H1109       H  0.88593968  0.82247612  0.16500285     0.31500
H1110       H  0.92434170  0.80183913  0.18110916     0.33200
H1111       H  0.92283524  0.75686802  0.25422797     0.32100
H1112       H  0.79623236  0.80906482  0.20998413     0.36100
H1113       H  0.83008993  0.81136314  0.28419139     0.28900
H1114       H  0.86874436  0.71564518  0.11827772     0.33100
H1115       H  0.90572928  0.71758190  0.19672416     0.36000
H1116       H  0.88089827  0.80936510  0.14043563     0.28600
H1117       H  0.82301072  0.81736682  0.25475044     0.41400
H1118       H  0.77047275  0.73150736  0.22494050     0.31500
H1119       H  0.77375581  0.76524362  0.16859927     0.39100
H1120       H  0.92459450  0.75795660  0.22254585     0.31000
H1121       H  0.81963836  0.71408855  0.26617632     0.31000
H1122       H  0.87690094  0.70746875  0.14624840     0.31300
Zr1123     Zr  0.85617023  0.52778094  0.13021326     2.17500
O1124       O  0.87841321  0.54826719  0.15856260    -0.51100
O1125       O  0.83371744  0.52218086  0.17134321    -0.74300
O1126       O  0.84025801  0.55887539  0.13308251    -0.81100
O1127       O  0.90440484  0.49425777  0.13537758    -0.82800
O1128       O  0.81540406  0.56182896  0.09867201    -0.78400
O1129       O  0.89113837  0.52115982  0.15313062    -0.90100
O1130       O  0.80942928  0.49904953  0.16134015    -0.76000
O1131       O  0.81905434  0.52073138  0.11625077    -0.85500
O1132       O  0.85331283  0.49477059  0.13133312    -0.85200
O1133       O  0.85419176  0.54085370  0.08518253    -0.72000
O1134       O  0.88372261  0.51639218  0.09851919    -0.84100
Zr1135     Zr  0.84054198  0.48800394  0.04035748     2.26400
Zr1136     Zr  0.81688235  0.53328535  0.07150520     2.06300
Zr1137     Zr  0.88033139  0.48335926  0.09952947     2.10000
Zr1138     Zr  0.81652608  0.48772513  0.11607849     1.78800
O1139       O  0.91988022  0.47674144  0.09247180    -0.92900
O1140       O  0.77600580  0.49159911  0.11833578    -0.40700
O1141       O  0.84350766  0.47508930  0.08507049    -0.77300
O1142       O  0.81283421  0.50004644  0.07142030    -0.96000
O1143       O  0.84329641  0.52104320  0.03947918    -0.89300
O1144       O  0.87756023  0.49520861  0.05431763    -0.92200
C1145       C  0.81756623  0.51116802  0.17763266     1.01600
C1146       C  0.90558365  0.50808204  0.15165516     1.14500
C1147       C  0.82559093  0.56819194  0.11981099     1.05300
O1148       O  0.77776556  0.53711475  0.08438750    -0.94300
O1149       O  0.79443366  0.52488087  0.03290303    -0.90100
O1150       O  0.80880734  0.49867223  0.01391780    -0.83200
C1151       C  0.79436956  0.51188101  0.01519547     1.11900
O1152       O  0.90701997  0.55207872  0.06542910    -0.96300
Zr1153     Zr  0.88029824  0.52804268  0.05300921     1.88900
O1154       O  0.85971633  0.49488672  0.99790551    -0.73000
O1155       O  0.81543975  0.55900096  0.03952218    -0.52200
O1156       O  0.87283636  0.55738206  0.03026455    -0.96900
O1157       O  0.91971266  0.52028697  0.04688232    -0.54100
O1158       O  0.88119298  0.52049472  0.00438046    -0.73500
C1159       C  0.87299040  0.50760951  0.98924479     0.98900
O1160       O  0.81620653  0.46397877  0.02169974    -0.62300
O1161       O  0.87611045  0.45769541  0.13132934    -0.57100
O1162       O  0.86095501  0.45825317  0.03592689    -0.93800
O1163       O  0.88635451  0.45673203  0.07021726    -0.92200
O1164       O  0.82443662  0.46113969  0.14502342    -0.92600
O1165       O  0.79455986  0.46091752  0.10194769    -0.91300
C1166       C  0.87710090  0.45011917  0.04877452     1.17700
H1167       H  0.85604204  0.49003998  0.14936447     0.33700
H1168       H  0.79802259  0.49667215  0.06527976     0.44500
H1169       H  0.88852534  0.48955016  0.04249437     0.38000
H1170       H  0.85648809  0.55409795  0.08552282     0.34500
H1171       H  0.77147460  0.48519553  0.13524666     0.26300
H1172       H  0.80147000  0.56571514  0.04409584     0.32200
H1173       H  0.86215170  0.55426994  0.01556189     0.38200
H1174       H  0.81109830  0.45999815  0.15684176     0.32600
H1175       H  0.87476747  0.44645575  0.11988645     0.31500
H1176       H  0.92388866  0.46785400  0.10700642     0.33200
H1177       H  0.92108835  0.51642801  0.02766663     0.32100
H1178       H  0.79877023  0.45889063  0.08273701     0.36100
H1179       H  0.82387558  0.45954405  0.00510321     0.28900
H1180       H  0.86811916  0.55294829  0.17272038     0.33100
H1181       H  0.90090290  0.55753217  0.08232270     0.36000
H1182       H  0.89094592  0.45651402  0.14016438     0.28600
H1183       H  0.81716652  0.45349244  0.03461975     0.41400
H1184       H  0.77807611  0.53926294  0.10424099     0.31500
H1185       H  0.77376954  0.50492997  0.12232232     0.39100
H1186       H  0.92196819  0.50873515  0.05738777     0.31000
H1187       H  0.82761659  0.56744918  0.04528341     0.31000
H1188       H  0.88205304  0.55903890  0.14694030     0.31300
Zr1189     Zr  0.95204543  0.52351036  0.65496056     2.17500
O1190       O  0.93309636  0.54554850  0.62517682    -0.51100
O1191       O  0.97604398  0.51765523  0.61562072    -0.74300
O1192       O  0.96912276  0.55437322  0.65625899    -0.81100
O1193       O  0.90249251  0.48954720  0.64621998    -0.82800
O1194       O  0.99266240  0.55735262  0.69204950    -0.78400
O1195       O  0.91800622  0.51596061  0.62988258    -0.90100
O1196       O  0.99875601  0.49356820  0.62645475    -0.76000
O1197       O  0.98831533  0.51618771  0.67175490    -0.85500
O1198       O  0.95474945  0.49048129  0.65389865    -0.85200
O1199       O  0.95230823  0.53625424  0.70019396    -0.72000
O1200       O  0.92248292  0.51222286  0.68375583    -0.84100
Zr1201     Zr  0.96288550  0.48414934  0.74546113     2.26400
Zr1202     Zr  0.98881407  0.52848813  0.71684589     2.06300
Zr1203     Zr  0.92579995  0.47919394  0.68320674     2.10000
Zr1204     Zr  0.99062513  0.48317338  0.67191453     1.78800
O1205       O  0.88624318  0.47369030  0.69176436    -0.92900
O1206       O  0.03110472  0.48731325  0.66980239    -0.40700
O1207       O  0.96182435  0.47100296  0.70068340    -0.77300
O1208       O  0.99258094  0.49542067  0.71691766    -0.96000
O1209       O  0.96004539  0.51710669  0.74625136    -0.89300
O1210       O  0.92661641  0.49118144  0.72844020    -0.92200
C1211       C  0.99166581  0.50601584  0.61000302     1.01600
C1212       C  0.90270353  0.50339486  0.62998353     1.14500
C1213       C  0.98298888  0.56378847  0.67082455     1.05300
O1214       O  0.02848720  0.52884519  0.70533636    -0.94300
O1215       O  0.00786499  0.52099985  0.75862661    -0.90100
O1216       O  0.99352925  0.49381716  0.77440449    -0.83200
C1217       C  0.00736110  0.50744296  0.77539287     1.11900
O1218       O  0.90018034  0.54846284  0.71090719    -0.96300
Zr1219     Zr  0.92383105  0.52396577  0.72929053     1.88900
O1220       O  0.94265487  0.49134769  0.78700841    -0.73000
O1221       O  0.99065533  0.55612006  0.74516709    -0.52200
O1222       O  0.92813904  0.55339439  0.75296694    -0.96900
O1223       O  0.88392272  0.51727856  0.73290887    -0.54100
O1224       O  0.91993062  0.51567160  0.77728434    -0.73500
C1225       C  0.92804571  0.50355342  0.79382984     0.98900
O1226       O  0.98544855  0.45960959  0.76578724    -0.62300
O1227       O  0.92919736  0.45407406  0.65034291    -0.57100
O1228       O  0.94205416  0.45497365  0.74810780    -0.93800
O1229       O  0.91972729  0.45190551  0.71096436    -0.92200
O1230       O  0.98443095  0.45562265  0.64426441    -0.92600
O1231       O  0.01188027  0.45689519  0.68943201    -0.91300
C1232       C  0.92755281  0.44611977  0.73369413     1.17700
H1233       H  0.95294304  0.48576070  0.63562627     0.33700
H1234       H  0.00697589  0.49199617  0.72433626     0.44500
H1235       H  0.91510082  0.48554942  0.73946605     0.38000
H1236       H  0.95009219  0.54950248  0.70005450     0.34500
H1237       H  0.03599557  0.47940985  0.65445115     0.26300
H1238       H  0.98566039  0.55212567  0.76340297     0.32200
H1239       H  0.94340907  0.55293259  0.76076944     0.38200
H1240       H  0.99830426  0.45428137  0.63342987     0.32600
H1241       H  0.93809841  0.44443351  0.65975352     0.31500
H1242       H  0.88241827  0.46293420  0.68015665     0.33200
H1243       H  0.88291141  0.50571943  0.74366263     0.32100
H1244       H  0.01504093  0.46002275  0.70863479     0.36100
H1245       H  0.97637454  0.45468884  0.78097959     0.28900
H1246       H  0.94478596  0.55033503  0.61277377     0.33100
H1247       H  0.90459016  0.54936727  0.69157014     0.36000
H1248       H  0.91394016  0.44876209  0.64903503     0.28600
H1249       H  0.98575682  0.44952186  0.75213631     0.41400
H1250       H  0.02907017  0.53346788  0.68642464     0.31500
H1251       H  0.03322688  0.50015812  0.66320100     0.39100
H1252       H  0.87936262  0.51357780  0.71434185     0.31000
H1253       H  0.00687266  0.55861383  0.74723670     0.31000
H1254       H  0.92897430  0.55621066  0.63683427     0.31300
Zr1255     Zr  0.95219971  0.74041891  0.63153526     2.17500
O1256       O  0.93313435  0.72054861  0.66430898    -0.51100
O1257       O  0.97493750  0.74653651  0.67228758    -0.74300
O1258       O  0.96727106  0.70888929  0.63194143    -0.81100
O1259       O  0.90095397  0.77372734  0.62944122    -0.82800
O1260       O  0.99333086  0.70562567  0.59893487    -0.78400
O1261       O  0.91510813  0.74784543  0.64902567    -0.90100
O1262       O  0.00350574  0.76576434  0.66095924    -0.76000
O1263       O  0.98943057  0.74656533  0.61768091    -0.85500
O1264       O  0.95638880  0.77327217  0.63286292    -0.85200
O1265       O  0.95437462  0.72733466  0.58652277    -0.72000
O1266       O  0.92531913  0.75223965  0.59954548    -0.84100
Zr1267     Zr  0.97040607  0.77930570  0.54056719     2.26400
Zr1268     Zr  0.99187051  0.73419795  0.57281383     2.06300
Zr1269     Zr  0.93023456  0.78506947  0.60020146     2.10000
Zr1270     Zr  0.99348450  0.77936524  0.61771063     1.78800
O1271       O  0.89279138  0.79639062  0.58960135    -0.92900
O1272       O  0.03382073  0.77462194  0.61488091    -0.40700
O1273       O  0.96740680  0.79208758  0.58560244    -0.77300
O1274       O  0.99721344  0.76736563  0.57282394    -0.96000
O1275       O  0.96595939  0.74636189  0.54005918    -0.89300
O1276       O  0.93301302  0.77319626  0.55499986    -0.92200
C1277       C  0.99351938  0.75488763  0.67752666     1.01600
C1278       C  0.89949237  0.75993150  0.64564366     1.14500
C1279       C  0.98215987  0.69938071  0.61917784     1.05300
O1280       O  0.02983156  0.72718924  0.58754285    -0.94300
O1281       O  0.01805491  0.74252997  0.53805198    -0.90100
O1282       O  0.00468801  0.76864690  0.51767401    -0.83200
C1283       C  0.01934599  0.75567323  0.52070600     1.11900
O1284       O  0.90520733  0.71389896  0.56614285    -0.96300
Zr1285     Zr  0.92863926  0.74042259  0.55437005     1.88900
O1286       O  0.95000621  0.77239124  0.49856358    -0.73000
O1287       O  0.98973846  0.70905288  0.53988446    -0.52200
O1288       O  0.93626350  0.71340040  0.52606341    -0.96900
O1289       O  0.88860731  0.74718743  0.55336114    -0.54100
O1290       O  0.92307957  0.75119740  0.50821007    -0.73500
C1291       C  0.93306657  0.76233832  0.49191254     0.98900
O1292       O  0.99006756  0.80420822  0.51705441    -0.62300
O1293       O  0.93315618  0.80841878  0.63583086    -0.57100
O1294       O  0.95396114  0.81071076  0.53719582    -0.93800
O1295       O  0.92946371  0.81241622  0.57224139    -0.92200
O1296       O  0.98506805  0.80528383  0.64779375    -0.92600
O1297       O  0.01542015  0.80722140  0.60920979    -0.91300
C1298       C  0.93880816  0.81923551  0.55108494     1.17700
H1299       H  0.95365913  0.77800859  0.65088023     0.33700
H1300       H  0.01225375  0.77064668  0.56752564     0.44500
H1301       H  0.92221864  0.77924063  0.54336242     0.38000
H1302       H  0.95159553  0.71414527  0.58649973     0.34500
H1303       H  0.03983063  0.77945821  0.63223052     0.26300
H1304       H  0.00414548  0.70237643  0.54182233     0.32200
H1305       H  0.94556045  0.71809959  0.51092294     0.38200
H1306       H  0.99189737  0.80190955  0.66543113     0.32600
H1307       H  0.92826192  0.82011676  0.62714322     0.31500
H1308       H  0.89045859  0.80703618  0.60200371     0.33200
H1309       H  0.88373737  0.74403397  0.53469704     0.32100
H1310       H  0.00826877  0.81297695  0.59314631     0.36100
H1311       H  0.00552889  0.80412400  0.52435134     0.28900
H1312       H  0.94500377  0.71573519  0.67647132     0.33100
H1313       H  0.89678551  0.71075339  0.54942528     0.36000
H1314       H  0.92096735  0.80536978  0.64869587     0.28600
H1315       H  0.99147235  0.80006539  0.49795422     0.41400
H1316       H  0.03355127  0.71532581  0.57845931     0.31500
H1317       H  0.03578817  0.76101230  0.61614705     0.39100
H1318       H  0.88755918  0.76087592  0.55426221     0.31000
H1319       H  0.97839634  0.70041961  0.54730609     0.31000
H1320       H  0.92787269  0.70962124  0.65390829     0.31300
Zr1321     Zr  0.71274300  0.52877498  0.49859976     2.17500
O1322       O  0.73100975  0.55156272  0.52779770    -0.51100
O1323       O  0.69319796  0.52035491  0.54006223    -0.74300
O1324       O  0.69215995  0.55822638  0.50127287    -0.81100
O1325       O  0.76282050  0.49642237  0.50116556    -0.82800
O1326       O  0.66718744  0.56030673  0.46670964    -0.78400
O1327       O  0.74938386  0.52331357  0.51904071    -0.90100
O1328       O  0.66817277  0.49810884  0.52878156    -0.76000
O1329       O  0.67621927  0.52151076  0.48261506    -0.85500
O1330       O  0.71064894  0.49562861  0.49800988    -0.85200
O1331       O  0.71035342  0.54262455  0.45427573    -0.72000
O1332       O  0.74106585  0.51788923  0.46794297    -0.84100
Zr1333     Zr  0.69973769  0.49157809  0.40527033     2.26400
Zr1334     Zr  0.67398239  0.53414557  0.43770358     2.06300
Zr1335     Zr  0.73815597  0.48475855  0.46614096     2.10000
Zr1336     Zr  0.67422564  0.48865925  0.48172914     1.78800
O1337       O  0.77679534  0.48029079  0.45146015    -0.92900
O1338       O  0.63401095  0.49430321  0.48370825    -0.40700
O1339       O  0.70150111  0.47760491  0.44968367    -0.77300
O1340       O  0.67080832  0.50107154  0.43667093    -0.96000
O1341       O  0.70233081  0.52444482  0.40651564    -0.89300
O1342       O  0.73637845  0.49827359  0.42175583    -0.92200
C1343       C  0.67710750  0.50932767  0.54599582     1.01600
C1344       C  0.76442694  0.51065695  0.51674334     1.14500
C1345       C  0.67636585  0.56657924  0.48829352     1.05300
O1346       O  0.63411129  0.53590426  0.44776595    -0.94300
O1347       O  0.65215527  0.52728108  0.39766175    -0.90100
O1348       O  0.66451488  0.49927951  0.38263611    -0.83200
C1349       C  0.65069558  0.51297013  0.38238899     1.11900
O1350       O  0.75909508  0.55836628  0.44007480    -0.96300
Zr1351     Zr  0.73854415  0.53134570  0.42389424     1.88900
O1352       O  0.72298018  0.49971487  0.36568964    -0.73000
O1353       O  0.67537957  0.56199356  0.40977106    -0.52200
O1354       O  0.73056107  0.55896441  0.39710072    -0.96900
O1355       O  0.77912527  0.52762390  0.42464743    -0.54100
O1356       O  0.74723333  0.52242190  0.37795888    -0.73500
C1357       C  0.73926843  0.51090185  0.36067579     0.98900
O1358       O  0.68467839  0.47191333  0.36922079    -0.62300
O1359       O  0.74046318  0.45945772  0.49885144    -0.57100
O1360       O  0.71251764  0.45942086  0.40788725    -0.93800
O1361       O  0.73778153  0.45510569  0.44170284    -0.92200
O1362       O  0.68268167  0.46056091  0.50716709    -0.92600
O1363       O  0.65136992  0.46205464  0.46898549    -0.91300
C1364       C  0.72621520  0.44921062  0.42141423     1.17700
H1365       H  0.71320271  0.49051001  0.51582957     0.33700
H1366       H  0.65609467  0.49741538  0.43055983     0.44500
H1367       H  0.74783783  0.49297516  0.41028988     0.38000
H1368       H  0.71176323  0.55594163  0.45532137     0.34500
H1369       H  0.62890140  0.48767140  0.50017515     0.26300
H1370       H  0.67848644  0.55748569  0.39115499     0.32200
H1371       H  0.72500701  0.55429664  0.37942357     0.38200
H1372       H  0.69298010  0.45347680  0.49529983     0.32600
H1373       H  0.75579861  0.45444916  0.49661780     0.31500
H1374       H  0.77638186  0.47022040  0.43780340     0.33200
H1375       H  0.78194846  0.51575481  0.41512950     0.32100
H1376       H  0.64942024  0.46322354  0.44909589     0.36100
H1377       H  0.69782386  0.46644885  0.35991984     0.28900
H1378       H  0.71972408  0.55507179  0.54160582     0.33100
H1379       H  0.75568273  0.55899714  0.45972762     0.36000
H1380       H  0.74065293  0.46546671  0.51692580     0.28600
H1381       H  0.67724639  0.46137554  0.37842691     0.41400
H1382       H  0.62861357  0.54665783  0.43719398     0.31500
H1383       H  0.63261051  0.50759758  0.48845604     0.39100
H1384       H  0.78282708  0.52499275  0.44386941     0.31000
H1385       H  0.65969407  0.56643333  0.40904827     0.31000
H1386       H  0.73306080  0.56278253  0.51649089     0.31300
Zr1387     Zr  0.70882641  0.23257090  0.29224776     2.17500
O1388       O  0.73117549  0.20767313  0.27253009    -0.51100
O1389       O  0.68945581  0.23842861  0.25005230    -0.74300
O1390       O  0.68695103  0.20404682  0.28815773    -0.81100
O1391       O  0.75702169  0.26597367  0.28682870    -0.82800
O1392       O  0.66173721  0.20244860  0.32252162    -0.78400
O1393       O  0.74245168  0.24010625  0.26702138    -0.90100
O1394       O  0.66508510  0.26191947  0.25788689    -0.76000
O1395       O  0.67199237  0.24003350  0.30653342    -0.85500
O1396       O  0.70620882  0.26563809  0.29052335    -0.85200
O1397       O  0.70601821  0.21983386  0.33706625    -0.72000
O1398       O  0.73673318  0.24450988  0.32256699    -0.84100
Zr1399     Zr  0.69432619  0.27239859  0.38231507     2.26400
Zr1400     Zr  0.66936644  0.22855735  0.35189025     2.06300
Zr1401     Zr  0.73298412  0.27760895  0.32219070     2.10000
Zr1402     Zr  0.66946237  0.27281458  0.30494434     1.78800
O1403       O  0.77124903  0.28261588  0.33777323    -0.92900
O1404       O  0.62955981  0.26615529  0.30142701    -0.40700
O1405       O  0.69605511  0.28524412  0.33705637    -0.77300
O1406       O  0.66607752  0.26167139  0.35072038    -0.96000
O1407       O  0.69704833  0.23948000  0.38339884    -0.89300
O1408       O  0.73099339  0.26529206  0.36695355    -0.92200
C1409       C  0.67398643  0.24953852  0.24234738     1.01600
C1410       C  0.75762294  0.25257859  0.26967994     1.14500
C1411       C  0.67075552  0.19608520  0.30084533     1.05300
O1412       O  0.62932733  0.22489646  0.34391505    -0.94300
O1413       O  0.64660429  0.23711010  0.38996094    -0.90100
O1414       O  0.66029449  0.26416367  0.40681145    -0.83200
C1415       C  0.64585637  0.25094932  0.40613502     1.11900
O1416       O  0.75488202  0.20487927  0.35428200    -0.96300
Zr1417     Zr  0.73365191  0.23229291  0.36734469     1.88900
O1418       O  0.71965522  0.26710682  0.42133324    -0.73000
O1419       O  0.67241736  0.20170249  0.38162548    -0.52200
O1420       O  0.72603663  0.20595733  0.39689333    -0.96900
O1421       O  0.77403120  0.23716430  0.36629265    -0.54100
O1422       O  0.74347150  0.24350039  0.41178870    -0.73500
C1423       C  0.73634924  0.25644979  0.42727056     0.98900
O1424       O  0.67391425  0.29277222  0.41319242    -0.62300
O1425       O  0.73586151  0.30178347  0.28785515    -0.57100
O1426       O  0.70901182  0.30397588  0.38228669    -0.93800
O1427       O  0.73263469  0.30720642  0.34652569    -0.92200
O1428       O  0.67743668  0.30057697  0.27851263    -0.92600
O1429       O  0.64543244  0.29893971  0.31657091    -0.91300
C1430       C  0.72258922  0.31352388  0.36772020     1.17700
H1431       H  0.70909085  0.27026855  0.27249364     0.33700
H1432       H  0.65135129  0.26542210  0.35671352     0.44500
H1433       H  0.74240891  0.27117151  0.37783498     0.38000
H1434       H  0.70740508  0.20648703  0.33656856     0.34500
H1435       H  0.62474947  0.27226554  0.28438983     0.26300
H1436       H  0.67322776  0.20693206  0.40019841     0.32200
H1437       H  0.71771261  0.21120376  0.41248847     0.38200
H1438       H  0.66593877  0.30066314  0.26400713     0.32600
H1439       H  0.72352336  0.31050042  0.29204768     0.31500
H1440       H  0.77721137  0.29244619  0.32576757     0.33200
H1441       H  0.77624275  0.24976545  0.37381970     0.32100
H1442       H  0.64799117  0.30092325  0.33622547     0.36100
H1443       H  0.68493650  0.29640230  0.42723813     0.28900
H1444       H  0.72256163  0.20332001  0.25655690     0.33100
H1445       H  0.75290800  0.20402528  0.33435843     0.36000
H1446       H  0.74967825  0.30867367  0.29255822     0.28600
H1447       H  0.67059685  0.30427518  0.40297460     0.41400
H1448       H  0.62483468  0.21423732  0.35533985     0.31500
H1449       H  0.62875349  0.25272374  0.29733526     0.39100
H1450       H  0.77775047  0.23846615  0.34680245     0.31000
H1451       H  0.65750045  0.19573384  0.38072840     0.31000
H1452       H  0.73038624  0.19734960  0.28573891     0.31300
Zr1453     Zr  0.58833986  0.52670698  0.79144305     2.17500
O1454       O  0.56586875  0.54897724  0.76596505    -0.51100
O1455       O  0.60625375  0.51930113  0.74844350    -0.74300
O1456       O  0.60664511  0.55736496  0.78647220    -0.81100
O1457       O  0.54077433  0.49152043  0.79015593    -0.82800
O1458       O  0.63226251  0.55916983  0.82035974    -0.78400
O1459       O  0.55267625  0.51845731  0.77086147    -0.90100
O1460       O  0.63204890  0.49704811  0.75682963    -0.76000
O1461       O  0.62597085  0.52056751  0.80470449    -0.85500
O1462       O  0.59248314  0.49360234  0.79092188    -0.85200
O1463       O  0.59142776  0.53981490  0.83623811    -0.72000
O1464       O  0.56210511  0.51397744  0.82352819    -0.84100
Zr1465     Zr  0.60788628  0.48858779  0.88226083     2.26400
Zr1466     Zr  0.62902318  0.53269046  0.84983645     2.06300
Zr1467     Zr  0.56727303  0.48095564  0.82400660     2.10000
Zr1468     Zr  0.62995447  0.48776803  0.80426912     1.78800
O1469       O  0.52991530  0.47315399  0.84037134    -0.92900
O1470       O  0.66949419  0.49482594  0.79766919    -0.40700
O1471       O  0.60492629  0.47520066  0.83753811    -0.77300
O1472       O  0.63460108  0.49975789  0.84937586    -0.96000
O1473       O  0.60302457  0.52128897  0.88268925    -0.89300
O1474       O  0.57009698  0.49368594  0.86872380    -0.92200
C1475       C  0.62184621  0.50826715  0.74075303     1.01600
C1476       C  0.53843752  0.50527188  0.77380832     1.14500
C1477       C  0.62271613  0.56566409  0.79908582     1.05300
O1478       O  0.66750999  0.54122892  0.83965766    -0.94300
O1479       O  0.65554423  0.52405101  0.88471467    -0.90100
O1480       O  0.64111353  0.49894101  0.90628613    -0.83200
C1481       C  0.65620747  0.51131308  0.90281789     1.11900
O1482       O  0.54121953  0.55226004  0.85573272    -0.96300
Zr1483     Zr  0.56556149  0.52652283  0.86814545     1.88900
O1484       O  0.58733380  0.49512257  0.92434368    -0.73000
O1485       O  0.62512925  0.55852582  0.88132351    -0.52200
O1486       O  0.57170314  0.55344984  0.89706255    -0.96900
O1487       O  0.52572583  0.51910157  0.86962946    -0.54100
O1488       O  0.56057427  0.51645107  0.91447335    -0.73500
C1489       C  0.57048303  0.50532022  0.93080038     0.98900
O1490       O  0.62734479  0.46441931  0.90771860    -0.62300
O1491       O  0.56491988  0.45658578  0.78982252    -0.57100
O1492       O  0.59542065  0.45668779  0.88460574    -0.93800
O1493       O  0.57235574  0.45159070  0.84872699    -0.92200
O1494       O  0.62209042  0.45927905  0.77939386    -0.92600
O1495       O  0.65503406  0.46234834  0.81601237    -0.91300
C1496       C  0.58305492  0.44609908  0.87004200     1.17700
H1497       H  0.58929003  0.48851084  0.77317587     0.33700
H1498       H  0.64962173  0.49647456  0.85477360     0.44500
H1499       H  0.55967152  0.48766840  0.88086630     0.38000
H1500       H  0.58912510  0.55306997  0.83568348     0.34500
H1501       H  0.66962491  0.50685327  0.78798746     0.26300
H1502       H  0.62765560  0.55306665  0.89951167     0.32200
H1503       H  0.57893318  0.56273320  0.88515083     0.38200
H1504       H  0.63286642  0.45926878  0.76411982     0.32600
H1505       H  0.57720027  0.44788349  0.79432843     0.31500
H1506       H  0.53224158  0.46720045  0.85825813     0.33200
H1507       H  0.52433427  0.50916097  0.88338050     0.32100
H1508       H  0.65499384  0.46205389  0.83611067     0.36100
H1509       H  0.64296929  0.46425056  0.90098682     0.28900
H1510       H  0.57539445  0.55297085  0.75058464     0.33100
H1511       H  0.53944179  0.55113009  0.83580956     0.36000
H1512       H  0.55104582  0.44973104  0.79435186     0.28600
H1513       H  0.62828022  0.46887395  0.92672102     0.41400
H1514       H  0.67195325  0.53282337  0.82470848     0.31500
H1515       H  0.67531628  0.49774988  0.81600165     0.39100
H1516       H  0.52260882  0.51282879  0.85213796     0.31000
H1517       H  0.63853651  0.56628451  0.87803731     0.31000
H1518       H  0.56442993  0.56003803  0.77775405     0.31300
Zr1519     Zr  0.59003017  0.22784982  0.99436973     2.17500
O1520       O  0.56621498  0.20325214  0.01223744    -0.51100
O1521       O  0.60845650  0.23370782  0.03755389    -0.74300
O1522       O  0.61082257  0.19886371  0.00033573    -0.81100
O1523       O  0.54412707  0.26493510  0.00374277    -0.82800
O1524       O  0.63384233  0.19718944  0.96391647    -0.78400
O1525       O  0.55770866  0.23766930  0.01982619    -0.90100
O1526       O  0.63376059  0.25633008  0.02892170    -0.76000
O1527       O  0.62703869  0.23395340  0.97903257    -0.85500
O1528       O  0.59429519  0.26075914  0.99656280    -0.85200
O1529       O  0.59135125  0.21547055  0.94912764    -0.72000
O1530       O  0.56202713  0.24118844  0.96521313    -0.84100
Zr1531     Zr  0.60531351  0.26769891  0.90521559     2.26400
Zr1532     Zr  0.62810480  0.22288298  0.93325515     2.06300
Zr1533     Zr  0.56746046  0.27419083  0.96617799     2.10000
Zr1534     Zr  0.63117928  0.26658788  0.98157353     1.78800
O1535       O  0.52936324  0.28071331  0.95131550    -0.92900
O1536       O  0.67048059  0.25799656  0.98631334    -0.40700
O1537       O  0.60466442  0.28028982  0.95063966    -0.77300
O1538       O  0.63353772  0.25570559  0.93567404    -0.96000
O1539       O  0.60044416  0.23500199  0.90304028    -0.89300
O1540       O  0.56821691  0.26217892  0.92086504    -0.92200
C1541       C  0.62410689  0.24476321  0.04505469     1.01600
C1542       C  0.54367788  0.25114763  0.02011451     1.14500
C1543       C  0.62611596  0.19076466  0.98631253     1.05300
O1544       O  0.66733797  0.21400945  0.93703897    -0.94300
O1545       O  0.65192996  0.23296319  0.89629562    -0.90100
O1546       O  0.63961841  0.26076821  0.88073183    -0.83200
C1547       C  0.65372304  0.24736988  0.88113312     1.11900
O1548       O  0.54107023  0.20309743  0.93485125    -0.96300
Zr1549     Zr  0.56377030  0.22926250  0.92002173     1.88900
O1550       O  0.58186652  0.26237893  0.86487073    -0.73000
O1551       O  0.62172705  0.19708603  0.90223890    -0.52200
O1552       O  0.56900764  0.20256879  0.89037317    -0.96900
O1553       O  0.52360558  0.23528110  0.92009694    -0.54100
O1554       O  0.55594848  0.24042238  0.87487800    -0.73500
C1555       C  0.56480561  0.25228709  0.85883385     0.98900
O1556       O  0.62258684  0.28836189  0.87212450    -0.62300
O1557       O  0.56649786  0.29764676  0.00184086    -0.57100
O1558       O  0.59399177  0.29984263  0.90968840    -0.93800
O1559       O  0.56975486  0.30455697  0.94421172    -0.92200
O1560       O  0.62599695  0.29511298  0.00729097    -0.92600
O1561       O  0.65730468  0.29110585  0.96928966    -0.91300
C1562       C  0.58135224  0.31038042  0.92398909     1.17700
H1563       H  0.59205917  0.26517849  0.01393080     0.33700
H1564       H  0.64837718  0.25915552  0.92991044     0.44500
H1565       H  0.55722801  0.26848662  0.90980008     0.38000
H1566       H  0.58925482  0.20217343  0.94949082     0.34500
H1567       H  0.67034673  0.24639244  0.99704895     0.26300
H1568       H  0.63654692  0.19473748  0.89390434     0.32200
H1569       H  0.55482773  0.20157844  0.88002009     0.38200
H1570       H  0.63724420  0.29447073  0.02205114     0.32600
H1571       H  0.58197087  0.30251408  0.00279180     0.31500
H1572       H  0.52064935  0.26964653  0.95676607     0.33200
H1573       H  0.51789969  0.22902173  0.90357843     0.32100
H1574       H  0.65515826  0.29278739  0.94950922     0.36100
H1575       H  0.61017050  0.29483887  0.86273212     0.28900
H1576       H  0.57315019  0.19966947  0.02973731     0.33100
H1577       H  0.54404887  0.20209221  0.95457359     0.36000
H1578       H  0.55751892  0.30801005  0.99440147     0.28600
H1579       H  0.63045887  0.29805919  0.88271177     0.41400
H1580       H  0.67237580  0.21949360  0.95443798     0.31500
H1581       H  0.67519406  0.25406605  0.96792477     0.39100
H1582       H  0.52220291  0.24866638  0.91599498     0.31000
H1583       H  0.61913424  0.18622110  0.91410891     0.31000
H1584       H  0.56848999  0.19245117  0.00011985     0.31300
Zr1585     Zr  0.08902450  0.02698602  0.78996813     2.17500
O1586       O  0.06933949  0.04960244  0.76191766    -0.51100
O1587       O  0.10975643  0.02154188  0.74849646    -0.74300
O1588       O  0.10688798  0.05782651  0.79080967    -0.81100
O1589       O  0.03978039  0.99363956  0.78440867    -0.82800
O1590       O  0.13170109  0.05871128  0.82555433    -0.78400
O1591       O  0.05282141  0.02125374  0.76864010    -0.90100
O1592       O  0.13218704  0.99656188  0.75524226    -0.76000
O1593       O  0.12587749  0.01981854  0.80494317    -0.85500
O1594       O  0.09253934  0.99387659  0.78671680    -0.85200
O1595       O  0.09052283  0.03861485  0.83563296    -0.72000
O1596       O  0.06116466  0.01358079  0.81904891    -0.84100
Zr1597     Zr  0.10383232  0.98522977  0.87849715     2.26400
Zr1598     Zr  0.12723562  0.03040524  0.85100632     2.06300
Zr1599     Zr  0.06555589  0.98056155  0.81707003     2.10000
Zr1600     Zr  0.12924714  0.98699669  0.80233514     1.78800
O1601       O  0.02697729  0.97251350  0.82821593    -0.92900
O1602       O  0.16842008  0.99616722  0.79849262    -0.40700
O1603       O  0.10244922  0.97329702  0.83272817    -0.77300
O1604       O  0.13185676  0.99747547  0.84814587    -0.96000
O1605       O  0.09967357  0.01806609  0.88118553    -0.89300
O1606       O  0.06694868  0.99171404  0.86284519    -0.92200
C1607       C  0.12398532  0.00949317  0.74035859     1.01600
C1608       C  0.03795369  0.00841410  0.77002901     1.14500
C1609       C  0.12211812  0.06606525  0.80495287     1.05300
O1610       O  0.16637019  0.03778376  0.84213787    -0.94300
O1611       O  0.15110901  0.01952246  0.88707613    -0.90100
O1612       O  0.13852496  0.99185440  0.90289282    -0.83200
C1613       C  0.15293184  0.00506475  0.90205639     1.11900
O1614       O  0.03976690  0.05086673  0.85162411    -0.96300
Zr1615     Zr  0.06311193  0.02459287  0.86446372     1.88900
O1616       O  0.08067345  0.98995031  0.91928087    -0.73000
O1617       O  0.12346707  0.05492077  0.88473698    -0.52200
O1618       O  0.06727340  0.05112129  0.89471348    -0.96900
O1619       O  0.02323913  0.01734972  0.86361978    -0.54100
O1620       O  0.05670662  0.01332753  0.90950828    -0.73500
C1621       C  0.06453280  0.00098709  0.92554839     0.98900
O1622       O  0.12349168  0.96326026  0.90765529    -0.62300
O1623       O  0.06580562  0.95680178  0.78186636    -0.57100
O1624       O  0.08897370  0.95390546  0.87561616    -0.93800
O1625       O  0.06507507  0.95058025  0.84019612    -0.92200
O1626       O  0.12557201  0.95782253  0.77775484    -0.92600
O1627       O  0.15581150  0.96289084  0.81515565    -0.91300
C1628       C  0.07529100  0.94429235  0.86124233     1.17700
H1629       H  0.09006630  0.98962201  0.76834839     0.33700
H1630       H  0.14672898  0.99376609  0.85362250     0.44500
H1631       H  0.05587129  0.98552057  0.87385831     0.38000
H1632       H  0.08831910  0.05187908  0.83618115     0.34500
H1633       H  0.16906665  0.00445580  0.78250076     0.26300
H1634       H  0.12237279  0.04837884  0.90235191     0.32200
H1635       H  0.07696336  0.05992451  0.88474149     0.38200
H1636       H  0.11815674  0.96111479  0.76043078     0.32600
H1637       H  0.06536387  0.96359279  0.76441926     0.31500
H1638       H  0.02623416  0.97234434  0.84828353     0.33200
H1639       H  0.02142099  0.00678621  0.87625623     0.32100
H1640       H  0.15434817  0.96182563  0.83511835     0.36100
H1641       H  0.11194506  0.95781760  0.91967232     0.28900
H1642       H  0.08058607  0.05432825  0.74887747     0.33100
H1643       H  0.04291181  0.05274840  0.83208343     0.36000
H1644       H  0.08099851  0.95134516  0.78271017     0.28600
H1645       H  0.12839554  0.95298048  0.89571154     0.41400
H1646       H  0.17045416  0.04709403  0.85607737     0.31500
H1647       H  0.17107932  0.00448064  0.81416682     0.39100
H1648       H  0.02057380  0.01194730  0.84541234     0.31000
H1649       H  0.13833695  0.06097771  0.88523556     0.31000
H1650       H  0.06596908  0.06021371  0.77401460     0.31300
Zr1651     Zr  0.09053842  0.73272828  0.00211425     2.17500
O1652       O  0.06844627  0.71103605  0.02894474    -0.51100
O1653       O  0.11011393  0.74156038  0.04356411    -0.74300
O1654       O  0.10922127  0.70276871  0.00966839    -0.81100
O1655       O  0.04260133  0.76619392  0.00154425    -0.82800
O1656       O  0.13556458  0.70049954  0.97679375    -0.78400
O1657       O  0.05544940  0.74080181  0.02382729    -0.90100
O1658       O  0.13498623  0.76415119  0.03307225    -0.76000
O1659       O  0.12778290  0.73920412  0.98798205    -0.85500
O1660       O  0.09372042  0.76581153  0.99996188    -0.85200
O1661       O  0.09391322  0.71775318  0.95864214    -0.72000
O1662       O  0.06353278  0.74318719  0.96909914    -0.84100
Zr1663     Zr  0.10817191  0.76783992  0.90827500     2.26400
Zr1664     Zr  0.13108088  0.72516128  0.94419097     2.06300
Zr1665     Zr  0.06775654  0.77616231  0.96617426     2.10000
Zr1666     Zr  0.13080427  0.77203883  0.98548032     1.78800
O1667       O  0.02997772  0.78309482  0.95046468    -0.92900
O1668       O  0.17065068  0.76589457  0.99165738    -0.40700
O1669       O  0.10498018  0.78297458  0.95174734    -0.77300
O1670       O  0.13525142  0.75815302  0.94172576    -0.96000
O1671       O  0.10474494  0.73494076  0.91043041    -0.89300
O1672       O  0.07076289  0.76184193  0.92260868    -0.92200
C1673       C  0.12582622  0.75290672  0.04992327     1.01600
C1674       C  0.04078923  0.75346037  0.01961212     1.14500
C1675       C  0.12577255  0.69449077  0.99818784     1.05300
O1676       O  0.17025419  0.71989579  0.95538862    -0.94300
O1677       O  0.15628475  0.73187585  0.90725661    -0.90100
O1678       O  0.14255246  0.75750394  0.88648574    -0.83200
C1679       C  0.15734961  0.74469640  0.88935026     1.11900
O1680       O  0.04342901  0.70406602  0.94140063    -0.96300
Zr1681     Zr  0.06767532  0.72896824  0.92555437     1.88900
O1682       O  0.08577011  0.76109334  0.86754161    -0.73000
O1683       O  0.12794830  0.69736542  0.91621039    -0.52200
O1684       O  0.07607592  0.69985664  0.90264201    -0.96900
O1685       O  0.02749280  0.73371492  0.92013243    -0.54100
O1686       O  0.06301189  0.73708665  0.87815708    -0.73500
C1687       C  0.07049353  0.74921529  0.86139693     0.98900
O1688       O  0.13098805  0.78625627  0.87746431    -0.62300
O1689       O  0.06539676  0.80187911  0.99818467    -0.57100
O1690       O  0.09519826  0.79999125  0.90538158    -0.93800
O1691       O  0.06924768  0.80411342  0.93835255    -0.92200
O1692       O  0.12255983  0.80085955  0.00929289    -0.92600
O1693       O  0.15476472  0.79727125  0.97013614    -0.91300
C1694       C  0.08074870  0.80999213  0.91802738     1.17700
H1695       H  0.09055018  0.77148556  0.01731445     0.33700
H1696       H  0.15017555  0.76143065  0.93598473     0.44500
H1697       H  0.05985889  0.76713962  0.91035832     0.38000
H1698       H  0.09210098  0.70449816  0.96037933     0.34500
H1699       H  0.17127732  0.75405745  0.00181075     0.26300
H1700       H  0.14277162  0.69604507  0.90742515     0.32200
H1701       H  0.06356492  0.69808681  0.88968186     0.38200
H1702       H  0.11593816  0.80905919  0.99530787     0.32600
H1703       H  0.07449066  0.81193038  0.99009966     0.31500
H1704       H  0.02329130  0.77086617  0.94630599     0.33200
H1705       H  0.02604970  0.74506236  0.90896233     0.32100
H1706       H  0.14935449  0.80011608  0.95158617     0.36100
H1707       H  0.12044000  0.79141373  0.86392840     0.28900
H1708       H  0.07803032  0.70745781  0.04451110     0.33100
H1709       H  0.04733509  0.70255490  0.96081717     0.36000
H1710       H  0.04974780  0.80631775  0.99662757     0.28600
H1711       H  0.13629586  0.79696000  0.88828098     0.41400
H1712       H  0.17351477  0.70727474  0.94849089     0.31500
H1713       H  0.17635195  0.76271164  0.97337345     0.39100
H1714       H  0.02215170  0.73745238  0.93835882     0.31000
H1715       H  0.12718888  0.68687847  0.92913731     0.31000
H1716       H  0.06695462  0.69969303  0.01775894     0.31300
Zr1717     Zr  0.21479944  0.02507408  0.49921605     2.17500
O1718       O  0.23714924  0.04873188  0.52205874    -0.51100
O1719       O  0.19456326  0.01854088  0.54088033    -0.74300
O1720       O  0.19476918  0.05486925  0.50267881    -0.81100
O1721       O  0.26170417  0.98870391  0.50669778    -0.82800
O1722       O  0.17056828  0.05730538  0.46735160    -0.78400
O1723       O  0.24835715  0.01580261  0.52372021    -0.90100
O1724       O  0.16889754  0.99637124  0.53087258    -0.76000
O1725       O  0.17791841  0.01944432  0.48300408    -0.85500
O1726       O  0.20973324  0.99220661  0.50053881    -0.85200
O1727       O  0.21436039  0.03803120  0.45428335    -0.72000
O1728       O  0.24275785  0.01184798  0.46991892    -0.84100
Zr1729     Zr  0.19945026  0.98595141  0.40933544     2.26400
Zr1730     Zr  0.17757535  0.03138744  0.43779431     2.06300
Zr1731     Zr  0.23694689  0.97901403  0.47055185     2.10000
Zr1732     Zr  0.17297013  0.98677443  0.48400809     1.78800
O1733       O  0.27537878  0.97074153  0.45936532    -0.92900
O1734       O  0.13366209  0.99507721  0.48949518    -0.40700
O1735       O  0.20003480  0.97310047  0.45427146    -0.77300
O1736       O  0.17102419  0.99858527  0.43870543    -0.96000
O1737       O  0.20493701  0.01864131  0.40780378    -0.89300
O1738       O  0.23648969  0.99119739  0.42550266    -0.92200
C1739       C  0.17832106  0.00777274  0.54731044     1.01600
C1740       C  0.26272501  0.00250539  0.52307099     1.14500
C1741       C  0.17928618  0.06340867  0.48933421     1.05300
O1742       O  0.13789450  0.03869415  0.44157980    -0.94300
O1743       O  0.15608735  0.02450643  0.39789703    -0.90100
O1744       O  0.16816377  0.99660090  0.38227843    -0.83200
C1745       C  0.15500377  0.01064203  0.38179275     1.11900
O1746       O  0.26732966  0.04691813  0.44341091    -0.96300
Zr1747     Zr  0.24155904  0.02396819  0.42484420     1.88900
O1748       O  0.22069848  0.99151000  0.36795691    -0.73000
O1749       O  0.18491289  0.05836041  0.40944210    -0.52200
O1750       O  0.23871059  0.05275957  0.39920158    -0.96900
O1751       O  0.28096792  0.01599262  0.41907041    -0.54100
O1752       O  0.24492294  0.01478346  0.37770723    -0.73500
C1753       C  0.23637882  0.00281425  0.36139793     0.98900
O1754       O  0.17905590  0.96069123  0.38753258    -0.62300
O1755       O  0.23377419  0.95493015  0.50502253    -0.57100
O1756       O  0.21442216  0.95468347  0.40710070    -0.93800
O1757       O  0.23611915  0.95025735  0.44437329    -0.92200
O1758       O  0.17729425  0.95779137  0.50880821    -0.92600
O1759       O  0.14700311  0.96334368  0.46730470    -0.91300
C1760       C  0.22699975  0.94457637  0.42218262     1.17700
H1761       H  0.21171753  0.98737502  0.51867382     0.33700
H1762       H  0.15622519  0.99574827  0.43194476     0.44500
H1763       H  0.24735544  0.98489611  0.41426295     0.38000
H1764       H  0.21681405  0.05126583  0.45509626     0.34500
H1765       H  0.12866656  0.98812973  0.50573741     0.26300
H1766       H  0.18900367  0.05318204  0.39149373     0.32200
H1767       H  0.23273260  0.06201790  0.41215583     0.38200
H1768       H  0.16429262  0.95739308  0.52126190     0.32600
H1769       H  0.22286106  0.94595194  0.49749963     0.31500
H1770       H  0.27768668  0.95845819  0.46790511     0.33200
H1771       H  0.28620114  0.02407778  0.40411624     0.32100
H1772       H  0.15454396  0.95799002  0.45120461     0.36100
H1773       H  0.16345771  0.96166391  0.39419277     0.28900
H1774       H  0.22776482  0.05326786  0.53724793     0.33100
H1775       H  0.27014092  0.04279782  0.46228762     0.36000
H1776       H  0.24831056  0.94832776  0.50446462     0.28600
H1777       H  0.17830906  0.96388047  0.36799683     0.41400
H1778       H  0.13130854  0.02787144  0.45099198     0.31500
H1779       H  0.13385964  0.00820284  0.49541862     0.39100
H1780       H  0.28102187  0.00336927  0.41116248     0.31000
H1781       H  0.16998712  0.06402219  0.40654492     0.31000
H1782       H  0.23798790  0.05924202  0.50916934     0.31300
Zr1783     Zr  0.21777160  0.72910506  0.29048939     2.17500
O1784       O  0.24018693  0.70501220  0.26876113    -0.51100
O1785       O  0.19688443  0.73605237  0.24950425    -0.74300
O1786       O  0.19754710  0.69956991  0.28573700    -0.81100
O1787       O  0.26317924  0.76637010  0.27971614    -0.82800
O1788       O  0.17320221  0.69826489  0.32107384    -0.78400
O1789       O  0.25020887  0.73860900  0.26414219    -0.90100
O1790       O  0.17364350  0.76002621  0.25940345    -0.76000
O1791       O  0.18129870  0.73525584  0.30791405    -0.85500
O1792       O  0.21328212  0.76206885  0.28962625    -0.85200
O1793       O  0.21778307  0.71591328  0.33520482    -0.72000
O1794       O  0.24657683  0.74204364  0.31886264    -0.84100
Zr1795     Zr  0.20492023  0.76775202  0.38120247     2.26400
Zr1796     Zr  0.18146085  0.72288983  0.35294302     2.06300
Zr1797     Zr  0.24116264  0.77502926  0.31883579     2.10000
Zr1798     Zr  0.17703768  0.76804275  0.30714845     1.78800
O1799       O  0.28039941  0.78178535  0.32808339    -0.92900
O1800       O  0.13768511  0.76120059  0.29863471    -0.40700
O1801       O  0.20466473  0.78134628  0.33663569    -0.77300
O1802       O  0.17571402  0.75578418  0.35221819    -0.96000
O1803       O  0.20985520  0.73500865  0.38233692    -0.89300
O1804       O  0.24148696  0.76230713  0.36371148    -0.92200
C1805       C  0.18208510  0.74812454  0.24290460     1.01600
C1806       C  0.26376878  0.75245822  0.26350821     1.14500
C1807       C  0.18143343  0.69189136  0.29891918     1.05300
O1808       O  0.14205044  0.71419381  0.35180221    -0.94300
O1809       O  0.15911044  0.73069160  0.39232072    -0.90100
O1810       O  0.17218678  0.75839823  0.40731595    -0.83200
C1811       C  0.15823634  0.74481526  0.40807829     1.11900
O1812       O  0.27109504  0.70600093  0.34534580    -0.96300
Zr1813     Zr  0.24597890  0.72946638  0.36369996     1.88900
O1814       O  0.23002078  0.76344338  0.41981960    -0.73000
O1815       O  0.19076647  0.69608524  0.38081395    -0.52200
O1816       O  0.24149155  0.70026354  0.38792006    -0.96900
O1817       O  0.28598807  0.73587189  0.36689722    -0.54100
O1818       O  0.25239989  0.73897568  0.41012610    -0.73500
C1819       C  0.24548724  0.75183695  0.42602845     0.98900
O1820       O  0.18712697  0.78812471  0.41440845    -0.62300
O1821       O  0.23668126  0.79965935  0.28539822    -0.57100
O1822       O  0.21724340  0.79978168  0.37755898    -0.93800
O1823       O  0.24256876  0.80415743  0.34407281    -0.92200
O1824       O  0.18244342  0.79829557  0.28621758    -0.92600
O1825       O  0.15003799  0.78997433  0.32573423    -0.91300
C1826       C  0.23110616  0.80999537  0.36439599     1.17700
H1827       H  0.21509620  0.76700454  0.27154013     0.33700
H1828       H  0.16101935  0.75890505  0.35900425     0.44500
H1829       H  0.25280855  0.76841736  0.37450610     0.38000
H1830       H  0.22000455  0.70265206  0.33422029     0.34500
H1831       H  0.13372811  0.76865128  0.28242999     0.26300
H1832       H  0.17719961  0.69386289  0.39188498     0.32200
H1833       H  0.23437814  0.70368610  0.40536692     0.38200
H1834       H  0.16972873  0.79960571  0.27344038     0.32600
H1835       H  0.22677771  0.80891046  0.29414098     0.31500
H1836       H  0.28314722  0.79389397  0.31920734     0.33200
H1837       H  0.29058575  0.73104079  0.38487695     0.32100
H1838       H  0.15850258  0.79689583  0.33976407     0.36100
H1839       H  0.19948381  0.79444949  0.42413351     0.28900
H1840       H  0.23117601  0.70059041  0.25315047     0.33100
H1841       H  0.27064997  0.70796358  0.32545403     0.36000
H1842       H  0.25150346  0.80578425  0.28462717     0.28600
H1843       H  0.17961370  0.79797158  0.40375347     0.41400
H1844       H  0.14164376  0.70134274  0.35888065     0.31500
H1845       H  0.13752734  0.74820091  0.29214596     0.39100
H1846       H  0.28713253  0.74951399  0.36866488     0.31000
H1847       H  0.19125831  0.68550703  0.36799828     0.31000
H1848       H  0.24043801  0.69451606  0.28171767     0.31300
Zr1849     Zr  0.85285791  0.24255218  0.65369847     2.17500
O1850       O  0.86864023  0.22303054  0.61828304    -0.51100
O1851       O  0.83074766  0.25332954  0.61452367    -0.74300
O1852       O  0.83346833  0.21271960  0.64975919    -0.81100
O1853       O  0.90689380  0.27025741  0.65277458    -0.82800
O1854       O  0.80797790  0.21098341  0.68371277    -0.78400
O1855       O  0.89033224  0.24478061  0.63458450    -0.90100
O1856       O  0.80943790  0.27827386  0.62525660    -0.76000
O1857       O  0.81704922  0.25262387  0.66854030    -0.85500
O1858       O  0.85475772  0.27557087  0.65546102    -0.85200
O1859       O  0.84904967  0.22810796  0.69760657    -0.72000
O1860       O  0.88192943  0.24971602  0.68601231    -0.84100
Zr1861     Zr  0.84213048  0.27998982  0.74657765     2.26400
Zr1862     Zr  0.81303392  0.23859016  0.71223212     2.06300
Zr1863     Zr  0.88329438  0.28274967  0.68804927     2.10000
Zr1864     Zr  0.81912141  0.28567898  0.67131149     1.78800
O1865       O  0.92219917  0.28315987  0.70296974    -0.92900
O1866       O  0.77830017  0.28556048  0.67091719    -0.40700
O1867       O  0.84773294  0.29407560  0.70301683    -0.77300
O1868       O  0.81314570  0.27191094  0.71470700    -0.96000
O1869       O  0.84086398  0.24688962  0.74513925    -0.89300
O1870       O  0.87815986  0.26988278  0.73215019    -0.92200
C1871       C  0.81606571  0.26582493  0.60865950     1.01600
C1872       C  0.90666419  0.25624612  0.63673199     1.14500
C1873       C  0.81778512  0.20424939  0.66257777     1.05300
O1874       O  0.77354228  0.23761246  0.69993309    -0.94300
O1875       O  0.79273686  0.24849746  0.75206543    -0.90100
O1876       O  0.80937278  0.27256338  0.77403822    -0.83200
C1877       C  0.79385376  0.26033209  0.77152058     1.11900
O1878       O  0.89710731  0.20915119  0.71740129    -0.96300
Zr1879     Zr  0.87674921  0.23699708  0.73055022     1.88900
O1880       O  0.86229759  0.27034916  0.78686626    -0.73000
O1881       O  0.80997968  0.21141504  0.74142609    -0.52200
O1882       O  0.86302698  0.21001162  0.75515372    -0.96900
O1883       O  0.91745461  0.23840537  0.73397923    -0.54100
O1884       O  0.88337634  0.24496008  0.77798135    -0.73500
C1885       C  0.87625582  0.25770176  0.79399633     0.98900
O1886       O  0.82129033  0.30508261  0.76817230    -0.62300
O1887       O  0.88871827  0.30924953  0.65807377    -0.57100
O1888       O  0.86534690  0.30778555  0.75258951    -0.93800
O1889       O  0.88982176  0.30907263  0.71740968    -0.92200
O1890       O  0.83022287  0.31180045  0.64308572    -0.92600
O1891       O  0.80322111  0.31459101  0.68812967    -0.91300
C1892       C  0.88157537  0.31546675  0.73953679     1.17700
H1893       H  0.85822365  0.28068525  0.63783264     0.33700
H1894       H  0.79886189  0.27638147  0.72118428     0.44500
H1895       H  0.88985450  0.27414361  0.74419087     0.38000
H1896       H  0.84967560  0.21476812  0.69643672     0.34500
H1897       H  0.77409746  0.29355928  0.65538753     0.26300
H1898       H  0.81369369  0.21591153  0.75989253     0.32200
H1899       H  0.87396629  0.20810477  0.77001547     0.38200
H1900       H  0.84326287  0.31726586  0.65259501     0.32600
H1901       H  0.90446141  0.31304955  0.66107194     0.31500
H1902       H  0.92983386  0.29180214  0.69041402     0.33200
H1903       H  0.92058808  0.24606886  0.75022677     0.32100
H1904       H  0.80306941  0.31315213  0.70811654     0.36100
H1905       H  0.83005790  0.30847561  0.78451612     0.28900
H1906       H  0.85656021  0.22163596  0.60466618     0.33100
H1907       H  0.89467457  0.20812953  0.69756853     0.36000
H1908       H  0.88861429  0.30404011  0.63947635     0.28600
H1909       H  0.82273705  0.31584829  0.75582978     0.41400
H1910       H  0.76670322  0.22896278  0.71314974     0.31500
H1911       H  0.77418533  0.27286972  0.66506007     0.39100
H1912       H  0.92213818  0.24625698  0.71852132     0.31000
H1913       H  0.79374783  0.20864839  0.74213851     0.31000
H1914       H  0.87059927  0.21059834  0.62649556     0.31300
Zr1915     Zr  0.85185257  0.02733254  0.63122604     2.17500
O1916       O  0.87105629  0.04705023  0.66394807    -0.51100
O1917       O  0.82488893  0.02220374  0.66824102    -0.74300
O1918       O  0.83691874  0.05886434  0.63152045    -0.81100
O1919       O  0.89947339  0.99216484  0.64343531    -0.82800
O1920       O  0.81491400  0.06158590  0.59427306    -0.78400
O1921       O  0.88404979  0.01901807  0.65854531    -0.90100
O1922       O  0.80295463  0.99774495  0.65679542    -0.76000
O1923       O  0.81634694  0.02057114  0.61195800    -0.85500
O1924       O  0.84848713  0.99440971  0.63190311    -0.85200
O1925       O  0.85444176  0.04028803  0.58616078    -0.72000
O1926       O  0.88225913  0.01584354  0.60372559    -0.84100
Zr1927     Zr  0.84417569  0.98755687  0.53946990     2.26400
Zr1928     Zr  0.81866069  0.03298585  0.56709219     2.06300
Zr1929     Zr  0.87825852  0.98284398  0.60409220     2.10000
Zr1930     Zr  0.81329488  0.98761621  0.61173995     1.78800
O1931       O  0.91827712  0.97701792  0.59966977    -0.92900
O1932       O  0.77312550  0.99346879  0.60972341    -0.40700
O1933       O  0.84292401  0.97493491  0.58458337    -0.77300
O1934       O  0.81391446  0.99976169  0.56675026    -0.96000
O1935       O  0.84782008  0.02060540  0.53880413    -0.89300
O1936       O  0.87977956  0.99453394  0.55870629    -0.92200
C1937       C  0.80905657  0.01057714  0.67321631     1.01600
C1938       C  0.89873565  0.00605520  0.65960227     1.14500
C1939       C  0.82347416  0.06814987  0.61638939     1.05300
O1940       O  0.77871581  0.03761540  0.57447778    -0.94300
O1941       O  0.79975097  0.02358619  0.52593251    -0.90100
O1942       O  0.81290685  0.99613319  0.50978308    -0.83200
C1943       C  0.79919393  0.00989179  0.50923713     1.11900
O1944       O  0.90900473  0.05129777  0.57369850    -0.96300
Zr1945     Zr  0.88335235  0.02735149  0.55792853     1.88900
O1946       O  0.86670331  0.99599387  0.50028120    -0.73000
O1947       O  0.82087238  0.05874116  0.53521073    -0.52200
O1948       O  0.87728922  0.05684459  0.53494181    -0.96900
O1949       O  0.92312322  0.01975131  0.55737672    -0.54100
O1950       O  0.89023548  0.01969574  0.51016142    -0.73500
C1951       C  0.88191188  0.00774326  0.49360369     0.98900
O1952       O  0.82758457  0.96080247  0.51678489    -0.62300
O1953       O  0.87264822  0.95709979  0.63536065    -0.57100
O1954       O  0.86431567  0.95765026  0.53715371    -0.93800
O1955       O  0.88482162  0.95594536  0.57588150    -0.92200
O1956       O  0.81784042  0.95994038  0.63953487    -0.92600
O1957       O  0.79161198  0.96178552  0.59366801    -0.91300
C1958       C  0.87843897  0.94940961  0.55290741     1.17700
H1959       H  0.84947410  0.98962684  0.65017805     0.33700
H1960       H  0.79961459  0.99644867  0.55899363     0.44500
H1961       H  0.89176765  0.98875645  0.54855237     0.38000
H1962       H  0.85684940  0.05351290  0.58675935     0.34500
H1963       H  0.76679561  0.98646983  0.62521604     0.26300
H1964       H  0.80571864  0.06432648  0.53532921     0.32200
H1965       H  0.87011318  0.05354265  0.51746427     0.38200
H1966       H  0.80429478  0.95956985  0.65110964     0.32600
H1967       H  0.86557872  0.94723402  0.62429581     0.31500
H1968       H  0.92079203  0.96499490  0.60888776     0.33200
H1969       H  0.92521195  0.01165033  0.54134263     0.32100
H1970       H  0.79847893  0.95913537  0.57578795     0.36100
H1971       H  0.81123197  0.96166448  0.51987447     0.28900
H1972       H  0.85920786  0.05211897  0.67588061     0.33100
H1973       H  0.90209711  0.05606687  0.59058576     0.36000
H1974       H  0.88791550  0.95241373  0.63920706     0.28600
H1975       H  0.82969576  0.96310409  0.49714010     0.41400
H1976       H  0.77472994  0.04834755  0.56290855     0.31500
H1977       H  0.77145745  0.00665665  0.61497362     0.39100
H1978       H  0.92525246  0.01141186  0.57312503     0.31000
H1979       H  0.83052077  0.06806903  0.54421551     0.31000
H1980       H  0.87675986  0.05769817  0.65334158     0.31300
Zr1981     Zr  0.94217855  0.23752100  0.12937008     2.17500
O1982       O  0.91763210  0.21513356  0.15143266    -0.51100
O1983       O  0.96407312  0.24135835  0.17125154    -0.74300
O1984       O  0.95913772  0.20681401  0.13194969    -0.81100
O1985       O  0.89409187  0.27286306  0.13713876    -0.82800
O1986       O  0.98490090  0.20519438  0.09824549    -0.78400
O1987       O  0.90896440  0.24628299  0.15420191    -0.90100
O1988       O  0.98878256  0.26443883  0.16245570    -0.76000
O1989       O  0.97937936  0.24538547  0.11671727    -0.85500
O1990       O  0.94428990  0.27046252  0.13197724    -0.85200
O1991       O  0.94595961  0.22560196  0.08391972    -0.72000
O1992       O  0.91485823  0.24909203  0.09756648    -0.84100
Zr1993     Zr  0.95999469  0.27946004  0.04185797     2.26400
Zr1994     Zr  0.98330420  0.23387927  0.07146469     2.06300
Zr1995     Zr  0.91780681  0.28215765  0.09984297     2.10000
Zr1996     Zr  0.98121631  0.27834643  0.11878508     1.78800
O1997       O  0.87827235  0.28606520  0.08899126    -0.92900
O1998       O  0.02189291  0.27602502  0.12069051    -0.40700
O1999       O  0.95493197  0.29124855  0.08714480    -0.77300
O2000       O  0.98694143  0.26715178  0.07373860    -0.96000
O2001       O  0.95738683  0.24640019  0.03904907    -0.89300
O2002       O  0.92266324  0.27140134  0.05424913    -0.92200
C2003       C  0.98082925  0.25166440  0.17777244     1.01600
C2004       C  0.89415785  0.25915887  0.15367192     1.14500
C2005       C  0.97441380  0.19816431  0.11869430     1.05300
O2006       O  0.02232198  0.22929998  0.08430465    -0.94300
O2007       O  0.00677385  0.24296442  0.03370249    -0.90100
O2008       O  0.99531064  0.27145388  0.01902673    -0.83200
C2009       C  0.00876402  0.25745577  0.01883528     1.11900
O2010       O  0.89508353  0.21286298  0.06102536    -0.96300
Zr2011     Zr  0.92029631  0.23862285  0.05181072     1.88900
O2012       O  0.94192951  0.27348924  0.99844766    -0.73000
O2013       O  0.98300954  0.20789230  0.03981629    -0.52200
O2014       O  0.92910864  0.21045169  0.02659592    -0.96900
O2015       O  0.88076427  0.24543649  0.04452446    -0.54100
O2016       O  0.91919153  0.24877880  0.00493917    -0.73500
C2017       C  0.92780889  0.26143024  0.98990453     0.98900
O2018       O  0.98134491  0.30371493  0.01905753    -0.62300
O2019       O  0.91990387  0.30822616  0.13121323    -0.57100
O2020       O  0.93947500  0.30937543  0.04043608    -0.93800
O2021       O  0.91203127  0.30936217  0.07223965    -0.92200
O2022       O  0.97269440  0.30234145  0.15204252    -0.92600
O2023       O  0.99979402  0.30740738  0.10757422    -0.91300
C2024       C  0.92243498  0.31687826  0.05238415     1.17700
H2025       H  0.94106634  0.27479829  0.15009696     0.33700
H2026       H  0.00195969  0.27081974  0.06886697     0.44500
H2027       H  0.91185977  0.27713902  0.04226861     0.38000
H2028       H  0.94395744  0.21231992  0.08353070     0.34500
H2029       H  0.02614479  0.28267079  0.13752720     0.26300
H2030       H  0.98003935  0.21350286  0.02182479     0.32200
H2031       H  0.93698990  0.21473233  0.01007184     0.38200
H2032       H  0.98662374  0.30369269  0.16280253     0.32600
H2033       H  0.92849820  0.31787549  0.12143357     0.31500
H2034       H  0.87305616  0.29612420  0.10113693     0.33200
H2035       H  0.88039673  0.25473645  0.02975062     0.32100
H2036       H  0.00036824  0.30752197  0.08748179     0.36100
H2037       H  0.97149468  0.30827040  0.00429672     0.28900
H2038       H  0.92575659  0.21128322  0.16802592     0.33100
H2039       H  0.89957163  0.20839613  0.07924270     0.36000
H2040       H  0.90442644  0.31312958  0.13201622     0.28600
H2041       H  0.98225481  0.31409570  0.03217815     0.41400
H2042       H  0.02919483  0.24176070  0.08294055     0.31500
H2043       H  0.02486176  0.26280926  0.12478784     0.39100
H2044       H  0.87615471  0.25240110  0.06091687     0.31000
H2045       H  0.99881858  0.20378127  0.03889185     0.31000
H2046       H  0.91734250  0.20404700  0.13956282     0.31300
Zr2047     Zr  0.95259986  0.02059246  0.15522132     2.17500
O2048       O  0.93682778  0.04470056  0.12644724    -0.51100
O2049       O  0.97504298  0.01204496  0.11550805    -0.74300
O2050       O  0.96749738  0.05195918  0.15035560    -0.81100
O2051       O  0.90448198  0.98639210  0.15208731    -0.82800
O2052       O  0.99229436  0.05612432  0.18461221    -0.78400
O2053       O  0.91860715  0.01191238  0.13150346    -0.90100
O2054       O  0.00237486  0.99184365  0.12779811    -0.76000
O2055       O  0.98961513  0.01452587  0.17028295    -0.85500
O2056       O  0.95593203  0.98763162  0.15650186    -0.85200
O2057       O  0.95389801  0.03500081  0.19930159    -0.72000
O2058       O  0.92444345  0.01033904  0.18702194    -0.84100
Zr2059     Zr  0.96896823  0.98482545  0.24796999     2.26400
Zr2060     Zr  0.99124580  0.02886245  0.21391689     2.06300
Zr2061     Zr  0.92879333  0.97731297  0.18890121     2.10000
Zr2062     Zr  0.99274436  0.98153095  0.17268865     1.78800
O2063       O  0.88936737  0.96986454  0.19524278    -0.92900
O2064       O  0.03338967  0.98443086  0.17123568    -0.40700
O2065       O  0.96568386  0.97013036  0.20441641    -0.77300
O2066       O  0.99629119  0.99582817  0.21592200    -0.96000
O2067       O  0.96493579  0.01775856  0.24687425    -0.89300
O2068       O  0.93168029  0.99062688  0.23319154    -0.92200
C2069       C  0.99270312  0.00239793  0.11058084     1.01600
C2070       C  0.90370115  0.99932308  0.13426486     1.14500
C2071       C  0.98185282  0.06183862  0.16332955     1.05300
O2072       O  0.02978397  0.03582946  0.20166280    -0.94300
O2073       O  0.01589300  0.02096919  0.25079118    -0.90100
O2074       O  0.00191471  0.99551100  0.27233452    -0.83200
C2075       C  0.01664063  0.00831827  0.26900540     1.11900
O2076       O  0.90095452  0.04723358  0.21974708    -0.96300
Zr2077     Zr  0.92771890  0.02316670  0.23196400     1.88900
O2078       O  0.95036001  0.99232426  0.29045040    -0.73000
O2079       O  0.98900128  0.05568716  0.24389043    -0.52200
O2080       O  0.93302263  0.05308356  0.25402401    -0.96900
O2081       O  0.88844089  0.01431999  0.23583450    -0.54100
O2082       O  0.92545274  0.01497870  0.28022480    -0.73500
C2083       C  0.93475074  0.00368129  0.29710390     0.98900
O2084       O  0.99319508  0.96080112  0.26676891    -0.62300
O2085       O  0.93426280  0.94996962  0.16061456    -0.57100
O2086       O  0.94840338  0.95591273  0.25538928    -0.93800
O2087       O  0.92259306  0.95270579  0.22167048    -0.92200
O2088       O  0.98522010  0.95451004  0.14441892    -0.92600
O2089       O  0.01311892  0.95504819  0.19102583    -0.91300
C2090       C  0.93211583  0.94734422  0.24368698     1.17700
H2091       H  0.95334544  0.98219318  0.13881905     0.33700
H2092       H  0.01123308  0.99270348  0.22184092     0.44500
H2093       H  0.92078416  0.98530008  0.24544110     0.38000
H2094       H  0.95122766  0.04816953  0.19798941     0.34500
H2095       H  0.03813162  0.97619183  0.15620424     0.26300
H2096       H  0.98933331  0.05050654  0.26249698     0.32200
H2097       H  0.94491589  0.05090881  0.26767210     0.38200
H2098       H  0.99882729  0.95306472  0.13313723     0.32600
H2099       H  0.94539553  0.94241100  0.17060632     0.31500
H2100       H  0.88657730  0.95908484  0.18323449     0.33200
H2101       H  0.88753691  0.00668156  0.25249183     0.32100
H2102       H  0.00140818  0.94667169  0.19823399     0.36100
H2103       H  0.98557555  0.95643255  0.28342625     0.28900
H2104       H  0.93752350  0.03971352  0.10774177     0.33100
H2105       H  0.90367099  0.04948388  0.20019792     0.36000
H2106       H  0.92010838  0.94291209  0.16225931     0.28600
H2107       H  0.99216094  0.95028810  0.25387171     0.41400
H2108       H  0.03321711  0.02727214  0.18651883     0.31500
H2109       H  0.03616909  0.99711658  0.16435552     0.39100
H2110       H  0.88595867  0.00542569  0.22080465     0.31000
H2111       H  0.00365836  0.06195573  0.24182724     0.31000
H2112       H  0.92071545  0.04581850  0.13091431     0.31300
C2113       C  0.97660421  0.15148511  0.15638954    -0.14100
C2114       C  0.98840603  0.14042574  0.13791382     0.16300
C2115       C  0.99613028  0.14860943  0.11362708     0.02600
C2116       C  0.99188899  0.16740135  0.10831747    -0.12600
C2117       C  0.97973145  0.17854505  0.12658375    -0.03700
C2118       C  0.97218153  0.17025025  0.15109504     0.01800
C2119       C  0.98980199  0.12005809  0.14296001     0.08700
N2120       N  0.00837672  0.13809406  0.09403746     0.65000
H2121       H  0.99780935  0.17314292  0.08931360     0.17900
N2122       N  0.95973427  0.18038583  0.17089761     0.75500
H2123       H  0.96998068  0.14533580  0.17477335     0.09400
C2124       C  0.99872920  0.11261395  0.16717683     0.03100
C2125       C  0.99673689  0.09360541  0.17262297    -0.05600
C2126       C  0.98577815  0.08147680  0.15454135    -0.24000
C2127       C  0.97754738  0.08894872  0.12980022     0.12400
C2128       C  0.97952171  0.10798517  0.12447759    -0.13100
N2129       N  0.00980154  0.12410191  0.18665416     0.64100
H2130       H  0.00331738  0.08848585  0.19170844     0.11900
N2131       N  0.96686442  0.07768911  0.10976851     0.60700
H2132       H  0.97214525  0.11347508  0.10605599     0.08100
O2133       O  0.97006776  0.18725758  0.19086725    -0.40800
O2134       O  0.93899582  0.17733275  0.17302599    -0.39900
O2135       O  0.99855644  0.13275257  0.07272017    -0.39900
O2136       O  0.02948888  0.13884170  0.09430577    -0.37600
O2137       O  0.94601896  0.07940333  0.10630264    -0.38500
O2138       O  0.97856711  0.07123958  0.09064257    -0.34700
O2139       O  0.99970146  0.12827818  0.20831054    -0.36100
O2140       O  0.03088728  0.12519935  0.18601460    -0.40400
C2141       C  0.92793136  0.99431086  0.37365084    -0.14100
C2142       C  0.90866018  0.00465890  0.37963700     0.16300
C2143       C  0.89811718  0.01452417  0.35846308     0.02600
C2144       C  0.90698090  0.01396404  0.33210686    -0.12600
C2145       C  0.92638894  0.00369818  0.32587443    -0.03700
C2146       C  0.93681118  0.99363803  0.34724369     0.01800
C2147       C  0.90113075  0.00596527  0.40844874     0.08700
N2148       N  0.87889722  0.02583103  0.36337033     0.65000
H2149       H  0.89848576  0.02179950  0.31641303     0.17900
N2150       N  0.95654667  0.98282310  0.34287329     0.75500
H2151       H  0.93631884  0.98677237  0.38976073     0.09400
C2152       C  0.88139593  0.99737492  0.41784834     0.03100
C2153       C  0.87575535  0.99826716  0.44542111    -0.05600
C2154       C  0.88940462  0.00745739  0.46452897    -0.24000
C2155       C  0.90935122  0.01593819  0.45503800     0.12400
C2156       C  0.91492988  0.01508283  0.42731459    -0.13100
N2157       N  0.86727931  0.98693077  0.40008959     0.64100
H2158       H  0.86041686  0.99154218  0.45182936     0.11900
N2159       N  0.92455440  0.02500975  0.47309577     0.60700
H2160       H  0.93035923  0.02146873  0.42046500     0.08100
O2161       O  0.95477967  0.96543767  0.34077941    -0.40800
O2162       O  0.97540245  0.98976331  0.34845873    -0.39900
O2163       O  0.88168344  0.04295491  0.36744394    -0.39900
O2164       O  0.86004536  0.02024254  0.35515873    -0.37600
O2165       O  0.94135050  0.01617097  0.48176031    -0.38500
O2166       O  0.92483313  0.04250395  0.47382052    -0.34700
O2167       O  0.86972896  0.96955837  0.39912942    -0.36100
O2168       O  0.84869598  0.99376697  0.39310207    -0.40400
C2169       C  0.90635518  0.24660295  0.86085120    -0.14100
C2170       C  0.89717682  0.26006777  0.87807348     0.16300
C2171       C  0.88188978  0.27302026  0.86734701     0.02600
C2172       C  0.87560854  0.27193887  0.84007694    -0.12600
C2173       C  0.88432862  0.25819704  0.82268924    -0.03700
C2174       C  0.90020816  0.24552865  0.83344570     0.01800
C2175       C  0.90446953  0.26065251  0.90682398     0.08700
N2176       N  0.87209905  0.28713637  0.88390389     0.65000
H2177       H  0.86358737  0.28199566  0.83265869     0.17900
N2178       N  0.91056947  0.23160378  0.81707953     0.75500
H2179       H  0.91868159  0.23694406  0.86867748     0.09400
C2180       C  0.90176698  0.24521601  0.92402095     0.03100
C2181       C  0.90980629  0.24586180  0.95059343    -0.05600
C2182       C  0.92069395  0.26167569  0.96089920    -0.24000
C2183       C  0.92377274  0.27707283  0.94339125     0.12400
C2184       C  0.91560760  0.27639431  0.91668840    -0.13100
N2185       N  0.89049419  0.22882633  0.91507778     0.64100
H2186       H  0.90737759  0.23373743  0.96324124     0.11900
N2187       N  0.93487127  0.29357289  0.95218459     0.60700
H2188       H  0.91831305  0.28816283  0.90341975     0.08100
O2189       O  0.90413884  0.21500878  0.81938872    -0.40800
O2190       O  0.92960001  0.23483014  0.80700259    -0.39900
O2191       O  0.87965750  0.30344905  0.88239396    -0.39900
O2192       O  0.85264858  0.28463904  0.89320884    -0.37600
O2193       O  0.95522160  0.29586295  0.94614021    -0.38500
O2194       O  0.92325119  0.30749507  0.95873393    -0.34700
O2195       O  0.90194681  0.21471590  0.90896243    -0.36100
O2196       O  0.87002118  0.22682550  0.92069522    -0.40400
C2197       C  0.82145395  0.11517447  0.65378865    -0.14100
C2198       C  0.80823768  0.12591168  0.63639210     0.16300
C2199       C  0.79969433  0.11737131  0.61262587     0.02600
C2200       C  0.80440279  0.09861706  0.60707409    -0.12600
C2201       C  0.81795000  0.08783510  0.62437229    -0.03700
C2202       C  0.82638989  0.09654731  0.64821908     0.01800
C2203       C  0.80647811  0.14634064  0.64191187     0.08700
N2204       N  0.78633893  0.12745346  0.59361662     0.65000
H2205       H  0.79766217  0.09261822  0.58862348     0.17900
N2206       N  0.84063126  0.08718712  0.66697980     0.75500
H2207       H  0.82909074  0.12154459  0.67143198     0.09400
C2208       C  0.80070787  0.15354772  0.66777533     0.03100
C2209       C  0.80331571  0.17254689  0.67334447    -0.05600
C2210       C  0.81188429  0.18489848  0.65386931    -0.24000
C2211       C  0.81666205  0.17778132  0.62763732     0.12400
C2212       C  0.81407639  0.15879078  0.62211887    -0.13100
N2213       N  0.79268619  0.14179223  0.68900300     0.64100
H2214       H  0.79950299  0.17746110  0.69361907     0.11900
N2215       N  0.82448736  0.18940370  0.60621015     0.60700
H2216       H  0.81923873  0.15364469  0.60245274     0.08100
O2217       O  0.86146626  0.08984902  0.66527297    -0.40800
O2218       O  0.83257833  0.08280066  0.68971839    -0.39900
O2219       O  0.79515406  0.13265426  0.57162200    -0.39900
O2220       O  0.76530994  0.12595640  0.59483166    -0.37600
O2221       O  0.84451348  0.18765873  0.59845802    -0.38500
O2222       O  0.81032367  0.19614658  0.58994250    -0.34700
O2223       O  0.80548486  0.13813284  0.70870209    -0.36100
O2224       O  0.77182195  0.14003601  0.69212260    -0.40400
C2225       C  0.10505088  0.02438732  0.33975074    -0.14100
C2226       C  0.09412605  0.00723741  0.33747543     0.16300
C2227       C  0.10429726  0.99114711  0.34791551     0.02600
C2228       C  0.12496228  0.99253497  0.36083540    -0.12600
C2229       C  0.13567799  0.00972654  0.36365248    -0.03700
C2230       C  0.12573359  0.02577160  0.35267199     0.01800
C2231       C  0.07394484  0.00642401  0.32060627     0.08700
N2232       N  0.09420193  0.97327628  0.34530178     0.65000
H2233       H  0.13228926  0.98012123  0.36951034     0.17900
N2234       N  0.13658988  0.04342438  0.35388884     0.75500
H2235       H  0.09759995  0.03673010  0.33098479     0.09400
C2236       C  0.05259458  0.00203555  0.33097176     0.03100
C2237       C  0.03402673  0.00267276  0.31374948    -0.05600
C2238       C  0.03640556  0.00797878  0.28655930    -0.24000
C2239       C  0.05785067  0.01233741  0.27631648     0.12400
C2240       C  0.07632253  0.01143389  0.29337235    -0.13100
N2241       N  0.04920353  0.99775802  0.35896813     0.64100
H2242       H  0.01760796  0.99941939  0.32182062     0.11900
N2243       N  0.06141432  0.01699249  0.24845526     0.60700
H2244       H  0.09273938  0.01475114  0.28529539     0.08100
O2245       O  0.12959632  0.05547039  0.37043354    -0.40800
O2246       O  0.14893237  0.04840812  0.33443092    -0.39900
O2247       O  0.09922013  0.96337359  0.32507450    -0.39900
O2248       O  0.08665886  0.96548772  0.36632451    -0.37600
O2249       O  0.06689644  0.00434124  0.23203656    -0.38500
O2250       O  0.06521352  0.03367473  0.24223601    -0.34700
O2251       O  0.04385131  0.01070191  0.37495033    -0.36100
O2252       O  0.04441017  0.98130039  0.36541912    -0.40400
C2253       C  0.22819964  0.89931134  0.38166921    -0.14100
C2254       C  0.23407411  0.88648728  0.40176041     0.16300
C2255       C  0.23893263  0.89296411  0.42817167     0.02600
C2256       C  0.23705838  0.91193451  0.43409124    -0.12600
C2257       C  0.23050545  0.92482584  0.41415238    -0.03700
C2258       C  0.22643577  0.91825876  0.38745715     0.01800
C2259       C  0.23474532  0.86656638  0.39415209     0.08700
N2260       N  0.24657557  0.88070813  0.44900711     0.65000
H2261       H  0.24048180  0.91651245  0.45464168     0.17900
N2262       N  0.22081312  0.93051540  0.36571847     0.75500
H2263       H  0.22476226  0.89452650  0.36120979     0.09400
C2264       C  0.21853050  0.85401537  0.40368833     0.03100
C2265       C  0.21816844  0.83586007  0.39388678    -0.05600
C2266       C  0.23324353  0.82965362  0.37384836    -0.24000
C2267       C  0.24923830  0.84244957  0.36376630     0.12400
C2268       C  0.24993647  0.86061200  0.37418768    -0.13100
N2269       N  0.20099847  0.85977121  0.42153497     0.64100
H2270       H  0.20521397  0.82677288  0.40156312     0.11900
N2271       N  0.26449098  0.83759483  0.34258214     0.60700
H2272       H  0.26205847  0.87032850  0.36607806     0.08100
O2273       O  0.23633161  0.93697034  0.35114318    -0.40800
O2274       O  0.20106590  0.93042373  0.35656257    -0.39900
O2275       O  0.26728793  0.87999321  0.45403126    -0.39900
O2276       O  0.23299456  0.87564714  0.46714645    -0.37600
O2277       O  0.26027335  0.84270933  0.31861339    -0.38500
O2278       O  0.28425660  0.83300547  0.34870230    -0.34700
O2279       O  0.18318793  0.86612101  0.41131709    -0.36100
O2280       O  0.20036145  0.85313213  0.44521308    -0.40400
C2281       C  0.13165037  0.74569542  0.12657798    -0.14100
C2282       C  0.15252936  0.75374594  0.13152118     0.16300
C2283       C  0.16471484  0.76126970  0.10974198     0.02600
C2284       C  0.15562332  0.76093641  0.08352630    -0.12600
C2285       C  0.13450919  0.75296369  0.07833330    -0.03700
C2286       C  0.12261287  0.74513855  0.10039484     0.01800
C2287       C  0.16159121  0.75290457  0.15937362     0.08700
N2288       N  0.18675822  0.76848193  0.11359734     0.65000
H2289       H  0.16544765  0.76667523  0.06706818     0.17900
N2290       N  0.10072397  0.73761528  0.09719786     0.75500
H2291       H  0.12223094  0.73978023  0.14327802     0.09400
C2292       C  0.16082791  0.76829127  0.17694670     0.03100
C2293       C  0.16754037  0.76631625  0.20397448    -0.05600
C2294       C  0.17486058  0.74913679  0.21414466    -0.24000
C2295       C  0.17553072  0.73369039  0.19642019     0.12400
C2296       C  0.16893617  0.73574815  0.16930677    -0.13100
N2297       N  0.15236370  0.78581036  0.16810694     0.64100
H2298       H  0.16692358  0.77837784  0.21710284     0.11900
N2299       N  0.18180112  0.71565554  0.20575621     0.60700
H2300       H  0.16901095  0.72374432  0.15603463     0.08100
O2301       O  0.08433117  0.74750434  0.10427968    -0.40800
O2302       O  0.09837209  0.72022996  0.09612899    -0.39900
O2303       O  0.20335285  0.75836196  0.10790738    -0.39900
O2304       O  0.18945124  0.78579711  0.11529144    -0.37600
O2305       O  0.16684659  0.70485079  0.21454287    -0.38500
O2306       O  0.20054635  0.70907067  0.19889221    -0.34700
O2307       O  0.13193579  0.78949180  0.17187132    -0.36100
O2308       O  0.16591950  0.79896309  0.16421005    -0.40400
C2309       C  0.03404558  0.00355465  0.05216059    -0.14100
C2310       C  0.01978382  0.00096592  0.02992104     0.16300
C2311       C  0.99651493  0.99931188  0.03426291     0.02600
C2312       C  0.98793496  0.00058002  0.06066956    -0.12600
C2313       C  0.00224901  0.00294436  0.08298727    -0.03700
C2314       C  0.02556357  0.00441639  0.07856658     0.01800
C2315       C  0.02988683  0.00031330  0.00256092     0.08700
N2316       N  0.98154093  0.99521636  0.01243389     0.65000
H2317       H  0.97008110  0.99891842  0.06385889     0.17900
N2318       N  0.04083193  0.00736172  0.10050659     0.75500
H2319       H  0.05193174  0.00496807  0.04896152     0.09400
C2320       C  0.02877974  0.01569161  0.98513080     0.03100
C2321       C  0.04065834  0.01553016  0.96079847    -0.05600
C2322       C  0.05364320  0.00013485  0.95276948    -0.24000
C2323       C  0.05468013  0.98462778  0.97034461     0.12400
C2324       C  0.04298953  0.98496279  0.99510468    -0.13100
N2325       N  0.01623915  0.03189521  0.99210093     0.64100
H2326       H  0.03962903  0.02777652  0.94811544     0.11900
N2327       N  0.06675755  0.96823481  0.96320813     0.60700
H2328       H  0.04414558  0.97315608  0.00864645     0.08100
O2329       O  0.05297888  0.99408234  0.10837523    -0.40800
O2330       O  0.04645368  0.02373863  0.10646300    -0.39900
O2331       O  0.97780663  0.97846589  0.00652298    -0.39900
O2332       O  0.96774713  0.00742304  0.00485447    -0.37600
O2333       O  0.08599855  0.96565386  0.97314246    -0.38500
O2334       O  0.05612221  0.95456237  0.95371315    -0.34700
O2335       O  0.02652031  0.04586688  0.00121760    -0.36100
O2336       O  0.99707560  0.03411288  0.98178049    -0.40400
C2337       C  0.99296908  0.02232593  0.71909723    -0.14100
C2338       C  0.97392913  0.01472270  0.73145662     0.16300
C2339       C  0.97604930  0.00578331  0.75675183     0.02600
C2340       C  0.99706556  0.00414430  0.76877054    -0.12600
C2341       C  0.01632707  0.01115095  0.75606624    -0.03700
C2342       C  0.01411879  0.02064103  0.73113939     0.01800
C2343       C  0.95320258  0.01305080  0.71538312     0.08700
N2344       N  0.95713499  0.99783706  0.77020922     0.65000
H2345       H  0.99828574  0.99718073  0.78821864     0.17900
N2346       N  0.03319520  0.02734509  0.71669862     0.75500
H2347       H  0.99165869  0.02858411  0.69916686     0.09400
C2348       C  0.94185261  0.02856257  0.70470508     0.03100
C2349       C  0.92359730  0.02587465  0.68740656    -0.05600
C2350       C  0.91667823  0.00794630  0.67996993    -0.24000
C2351       C  0.92803215  0.99246662  0.69084155     0.12400
C2352       C  0.94607599  0.99517851  0.70834676    -0.13100
N2353       N  0.94884139  0.04708633  0.71064745     0.64100
H2354       H  0.91536353  0.03795491  0.67893008     0.11900
N2355       N  0.92156846  0.97389115  0.68445621     0.60700
H2356       H  0.95511082  0.98316377  0.71575796     0.08100
O2357       O  0.03700644  0.04455426  0.71635751    -0.40800
O2358       O  0.04188347  0.01720732  0.69865852    -0.39900
O2359       O  0.95451184  0.98046924  0.76966945    -0.39900
O2360       O  0.94723899  0.00716046  0.78826361    -0.37600
O2361       O  0.93229777  0.96514178  0.66647799    -0.38500
O2362       O  0.90998322  0.96492418  0.70136285    -0.34700
O2363       O  0.96072626  0.05561324  0.69354800    -0.36100
O2364       O  0.93805766  0.05632729  0.72803576    -0.40400
C2365       C  0.14006731  0.02543098  0.66941428    -0.14100
C2366       C  0.14181840  0.00833999  0.65596159     0.16300
C2367       C  0.13772110  0.99183188  0.67043433     0.02600
C2368       C  0.13211402  0.99268044  0.69791644    -0.12600
C2369       C  0.13044182  0.00971993  0.71147647    -0.03700
C2370       C  0.13436730  0.02629254  0.69695246     0.01800
C2371       C  0.15068351  0.00811200  0.62799184     0.08700
N2372       N  0.14020822  0.97403281  0.65805425     0.65000
H2373       H  0.12904956  0.97984773  0.70875816     0.17900
N2374       N  0.13394230  0.04398101  0.71006840     0.75500
H2375       H  0.14371003  0.03816574  0.65859047     0.09400
C2376       C  0.13738573  0.00338586  0.60539446     0.03100
C2377       C  0.14682090  0.00349758  0.57944832    -0.05600
C2378       C  0.16933295  0.00847695  0.57532444    -0.24000
C2379       C  0.18244532  0.01370108  0.59800076     0.12400
C2380       C  0.17302284  0.01340687  0.62398896    -0.13100
N2381       N  0.11409582  0.99922509  0.60810641     0.64100
H2382       H  0.13626557  0.99989272  0.56231965     0.11900
N2383       N  0.20552265  0.01861796  0.59532887     0.60700
H2384       H  0.18330053  0.01721340  0.64127947     0.08100
O2385       O  0.11702130  0.05427322  0.70709039    -0.40800
O2386       O  0.15214294  0.05108702  0.71795407    -0.39900
O2387       O  0.15853979  0.96553622  0.66088171    -0.39900
O2388       O  0.12283786  0.96481495  0.65249036    -0.37600
O2389       O  0.21092745  0.03553943  0.59526792    -0.38500
O2390       O  0.22030736  0.00657567  0.60030186    -0.34700
O2391       O  0.10001753  0.01185598  0.60325458    -0.36100
O2392       O  0.10786460  0.98254410  0.60650996    -0.40400
C2393       C  0.06324046  0.89207755  0.86243251    -0.14100
C2394       C  0.06813756  0.88777145  0.88957408     0.16300
C2395       C  0.07392217  0.90226252  0.90747769     0.02600
C2396       C  0.07526092  0.92049712  0.89784531    -0.12600
C2397       C  0.07129791  0.92482881  0.87037838    -0.03700
C2398       C  0.06477417  0.91032916  0.85267235     0.01800
C2399       C  0.07070608  0.86794935  0.89721083     0.08700
N2400       N  0.08006659  0.89866774  0.93501539     0.65000
H2401       H  0.08013704  0.93129483  0.91198401     0.17900
N2402       N  0.06115054  0.91350297  0.82439645     0.75500
H2403       H  0.05918896  0.88100058  0.84836526     0.09400
C2404       C  0.05545334  0.85850104  0.91404594     0.03100
C2405       C  0.05894081  0.83969528  0.92016816    -0.05600
C2406       C  0.07724649  0.82973950  0.90939651    -0.24000
C2407       C  0.09193190  0.83924431  0.89152352     0.12400
C2408       C  0.08863931  0.85810021  0.88598782    -0.13100
N2409       N  0.03578221  0.86744903  0.92406367     0.64100
H2410       H  0.04697935  0.83282779  0.93328142     0.11900
N2411       N  0.11035869  0.83023243  0.87864502     0.60700
H2412       H  0.10023307  0.86514942  0.87256360     0.08100
O2413       O  0.04133966  0.91379597  0.81545759    -0.40800
O2414       O  0.07707044  0.91077261  0.80803555    -0.39900
O2415       O  0.10055008  0.89689562  0.94081815    -0.39900
O2416       O  0.06648709  0.90288798  0.95363672    -0.37600
O2417       O  0.10827854  0.82533143  0.85416748    -0.38500
O2418       O  0.12976916  0.83271450  0.88813599    -0.34700
O2419       O  0.01787676  0.86617701  0.91055121    -0.36100
O2420       O  0.03470696  0.87166160  0.94889115    -0.40400
C2421       C  0.69762223  0.26208209  0.82935424    -0.14100
C2422       C  0.71673093  0.25388118  0.84060564     0.16300
C2423       C  0.71503679  0.24376060  0.86485042     0.02600
C2424       C  0.69416742  0.24143656  0.87696538    -0.12600
C2425       C  0.67475731  0.24933401  0.86565046    -0.03700
C2426       C  0.67669086  0.26006468  0.84172937     0.01800
C2427       C  0.73791790  0.25512107  0.82565282     0.08700
N2428       N  0.73441679  0.23643766  0.87808827     0.65000
H2429       H  0.69334139  0.23383008  0.89590763     0.17900
N2430       N  0.65769998  0.26849009  0.82912960     0.75500
H2431       H  0.69892999  0.26985896  0.81058908     0.09400
C2432       C  0.74512518  0.24020118  0.80959877     0.03100
C2433       C  0.76396278  0.24218565  0.79337266    -0.05600
C2434       C  0.77572719  0.25906074  0.79198291    -0.24000
C2435       C  0.76872710  0.27399419  0.80865353     0.12400
C2436       C  0.74984593  0.27185830  0.82530978    -0.13100
N2437       N  0.73257677  0.22335879  0.80792325     0.64100
H2438       H  0.76891895  0.23042521  0.78104234     0.11900
N2439       N  0.77977265  0.29156694  0.80818326     0.60700
H2440       H  0.74409679  0.28345633  0.83746918     0.08100
O2441       O  0.64796432  0.25989759  0.81017810    -0.40800
O2442       O  0.65544934  0.28586410  0.83067128    -0.39900
O2443       O  0.74277913  0.24533052  0.89770642    -0.39900
O2444       O  0.73887524  0.21941866  0.87563207    -0.37600
O2445       O  0.77101781  0.30475677  0.79509592    -0.38500
O2446       O  0.79406464  0.29518548  0.82631989    -0.34700
O2447       O  0.71893382  0.22128320  0.78857296    -0.36100
O2448       O  0.73966112  0.20919350  0.82025477    -0.40400
C2449       C  0.56511238  0.36157283  0.91508724    -0.14100
C2450       C  0.58204694  0.36766790  0.89743987     0.16300
C2451       C  0.59913288  0.35521421  0.89004463     0.02600
C2452       C  0.59830741  0.33685473  0.89902715    -0.12600
C2453       C  0.58108958  0.33041025  0.91616965    -0.03700
C2454       C  0.56462635  0.34325431  0.92480645     0.01800
C2455       C  0.58271002  0.38753997  0.88960869     0.08700
N2456       N  0.61835408  0.36118398  0.87515733     0.65000
H2457       H  0.61180312  0.32771875  0.89297814     0.17900
N2458       N  0.54753952  0.33821732  0.94368105     0.75500
H2459       H  0.55234749  0.37124746  0.92176071     0.09400
C2460       C  0.57813566  0.39373950  0.86299948     0.03100
C2461       C  0.57777888  0.41281816  0.85731650    -0.05600
C2462       C  0.58200747  0.42607035  0.87765201    -0.24000
C2463       C  0.58652994  0.41968740  0.90436804     0.12400
C2464       C  0.58678329  0.40065205  0.90995112    -0.13100
N2465       N  0.57306920  0.38098776  0.84165288     0.64100
H2466       H  0.57444401  0.41724480  0.83668336     0.11900
N2467       N  0.59033169  0.43219020  0.92641280     0.60700
H2468       H  0.59001895  0.39604570  0.93053876     0.08100
O2469       O  0.52827385  0.33423558  0.93489180    -0.40800
O2470       O  0.54983050  0.34272810  0.96829142    -0.39900
O2471       O  0.63561847  0.36598071  0.88819472    -0.39900
O2472       O  0.62049280  0.35608403  0.85079523    -0.37600
O2473       O  0.57384605  0.43735930  0.94053594    -0.38500
O2474       O  0.60974687  0.43325524  0.93644586    -0.34700
O2475       O  0.55284352  0.37847004  0.83518100    -0.36100
O2476       O  0.58811515  0.37705663  0.82462974    -0.40400
C2477       C  0.78074653  0.25402826  0.48308955    -0.14100
C2478       C  0.76912923  0.26119795  0.50540969     0.16300
C2479       C  0.74727152  0.26825670  0.50136842     0.02600
C2480       C  0.73707740  0.26701472  0.47572233    -0.12600
C2481       C  0.74833702  0.25904565  0.45359675    -0.03700
C2482       C  0.77080661  0.25308727  0.45738063     0.01800
C2483       C  0.78083006  0.26220567  0.53210647     0.08700
N2484       N  0.73490470  0.27630674  0.52319778     0.65000
H2485       H  0.72004121  0.27194577  0.47332904     0.17900
N2486       N  0.78428190  0.24687379  0.43519019     0.75500
H2487       H  0.79794550  0.24948258  0.48548887     0.09400
C2488       C  0.79041274  0.24634586  0.54436755     0.03100
C2489       C  0.80262455  0.24804379  0.56854302    -0.05600
C2490       C  0.80518433  0.26526346  0.58146236    -0.24000
C2491       C  0.79565374  0.28117534  0.56906835     0.12400
C2492       C  0.78392553  0.27950669  0.54451473    -0.13100
N2493       N  0.78694180  0.22823263  0.53336930     0.64100
H2494       H  0.80932596  0.23560765  0.57785927     0.11900
N2495       N  0.79784568  0.29920988  0.58082139     0.60700
H2496       H  0.77736179  0.29189853  0.53494875     0.08100
O2497       O  0.79661528  0.25843295  0.42310210    -0.40800
O2498       O  0.78848387  0.22979295  0.43285804    -0.39900
O2499       O  0.73245751  0.29368681  0.52398857    -0.39900
O2500       O  0.72190139  0.26617997  0.53687077    -0.37600
O2501       O  0.81324881  0.30977587  0.57257791    -0.38500
O2502       O  0.78132670  0.30614952  0.59315953    -0.34700
O2503       O  0.80329006  0.21968239  0.52302318    -0.36100
O2504       O  0.76990150  0.21916835  0.54065607    -0.40400
C2505       C  0.79878461  0.24384999  0.21233474    -0.14100
C2506       C  0.81863966  0.25015154  0.22446031     0.16300
C2507       C  0.81831025  0.25657351  0.25142669     0.02600
C2508       C  0.79821530  0.25691868  0.26560119    -0.12600
C2509       C  0.77815311  0.25112901  0.25338993    -0.03700
C2510       C  0.77852785  0.24426074  0.22656526     0.01800
C2511       C  0.83879999  0.25208921  0.20763846     0.08700
N2512       N  0.83816142  0.26298860  0.26468274     0.65000
H2513       H  0.79835545  0.26186390  0.28639824     0.17900
N2514       N  0.75846666  0.23879880  0.21289684     0.75500
H2515       H  0.79884044  0.23935701  0.19133216     0.09400
C2516       C  0.84894594  0.23670458  0.19509476     0.03100
C2517       C  0.86714971  0.23942238  0.17788452    -0.05600
C2518       C  0.87537934  0.25730398  0.17269705    -0.24000
C2519       C  0.86519886  0.27271168  0.18530978     0.12400
C2520       C  0.84701715  0.26995790  0.20261135    -0.13100
N2521       N  0.84110462  0.21825406  0.19971227     0.64100
H2522       H  0.87464391  0.22745170  0.16814448     0.11900
N2523       N  0.87348595  0.29112017  0.18159011     0.60700
H2524       H  0.83902473  0.28189141  0.21185410     0.08100
O2525       O  0.75420105  0.22175705  0.21020162    -0.40800
O2526       O  0.74855082  0.25036333  0.19787717    -0.39900
O2527       O  0.84113555  0.28021545  0.26748092    -0.39900
O2528       O  0.84880237  0.25196668  0.27983760    -0.37600
O2529       O  0.88566538  0.29819776  0.19980761    -0.38500
O2530       O  0.86394287  0.30162481  0.16467293    -0.34700
O2531       O  0.82953500  0.21035661  0.18163142    -0.36100
O2532       O  0.85052958  0.20850474  0.21766011    -0.40400
C2533       C  0.62693299  0.23730400  0.12236833    -0.14100
C2534       C  0.64643478  0.24712510  0.12893909     0.16300
C2535       C  0.65908272  0.25510989  0.10786333     0.02600
C2536       C  0.65156064  0.25392105  0.08096430    -0.12600
C2537       C  0.63162873  0.24456480  0.07412370    -0.03700
C2538       C  0.61947670  0.23581326  0.09537842     0.01800
C2539       C  0.65370810  0.24806568  0.15777245     0.08700
N2540       N  0.68000261  0.26399229  0.11320469     0.65000
H2541       H  0.66163345  0.26034236  0.06528635     0.17900
N2542       N  0.59942032  0.22555540  0.09032066     0.75500
H2543       H  0.61737140  0.23072510  0.13839195     0.09400
C2544       C  0.64839840  0.26331563  0.17448424     0.03100
C2545       C  0.65497506  0.26343787  0.20184027    -0.05600
C2546       C  0.66639840  0.24832390  0.21342380    -0.24000
C2547       C  0.67072542  0.23260904  0.19677096     0.12400
C2548       C  0.66463869  0.23278123  0.16923215    -0.13100
N2549       N  0.63540581  0.27843482  0.16437397     0.64100
H2550       H  0.65100986  0.27549641  0.21406699     0.11900
N2551       N  0.68012418  0.21594310  0.20762072     0.60700
H2552       H  0.66802385  0.22068228  0.15681229     0.08100
O2553       O  0.58077553  0.23307784  0.09524609    -0.40800
O2554       O  0.60049536  0.20809821  0.08910682    -0.39900
O2555       O  0.69787835  0.25508157  0.10907843    -0.39900
O2556       O  0.68072522  0.28146760  0.11418206    -0.37600
O2557       O  0.66714287  0.20315722  0.21525895    -0.38500
O2558       O  0.70039061  0.21216535  0.20291264    -0.34700
O2559       O  0.61460857  0.27868459  0.16892259    -0.36100
O2560       O  0.64514112  0.29329410  0.15780889    -0.40400
C2561       C  0.62751845  0.51982414  0.66489568    -0.14100
C2562       C  0.64249791  0.50605410  0.65640185     0.16300
C2563       C  0.65058559  0.49320279  0.67554374     0.02600
C2564       C  0.64339494  0.49413886  0.70254275    -0.12600
C2565       C  0.62849470  0.50801227  0.71145069    -0.03700
C2566       C  0.62057587  0.52105032  0.69206588     0.01800
C2567       C  0.65120861  0.50663283  0.62823359     0.08700
N2568       N  0.66705160  0.47970289  0.66834628     0.65000
H2569       H  0.64994104  0.48399038  0.71669068     0.17900
N2570       N  0.60626502  0.53609404  0.69953535     0.75500
H2571       H  0.62164961  0.53005789  0.65042456     0.09400
C2572       C  0.64226745  0.49549755  0.60741986     0.03100
C2573       C  0.65098052  0.49665310  0.58107585    -0.05600
C2574       C  0.66827842  0.50916444  0.57449858    -0.24000
C2575       C  0.67642558  0.52101086  0.59539886     0.12400
C2576       C  0.66803824  0.51941467  0.62190016    -0.13100
N2577       N  0.62364798  0.48353967  0.61231226     0.64100
H2578       H  0.64382544  0.48775038  0.56561117     0.11900
N2579       N  0.69269182  0.53510916  0.59026256     0.60700
H2580       H  0.67453494  0.52844541  0.63766050     0.08100
O2581       O  0.58584666  0.53548664  0.69296717    -0.40800
O2582       O  0.61492398  0.55154003  0.70548990    -0.39900
O2583       O  0.68723397  0.48264335  0.67466385    -0.39900
O2584       O  0.66086539  0.46333207  0.66326907    -0.37600
O2585       O  0.68624914  0.55172781  0.58822915    -0.38500
O2586       O  0.71297520  0.53188528  0.59568862    -0.34700
O2587       O  0.60418145  0.48934099  0.60701875    -0.36100
O2588       O  0.62694880  0.46631098  0.61430890    -0.40400
C2589       C  0.74702323  0.39992953  0.40534345    -0.14100
C2590       C  0.72744748  0.39186235  0.39482389     0.16300
C2591       C  0.70761733  0.40242690  0.39434988     0.02600
C2592       C  0.70789853  0.42094593  0.40293773    -0.12600
C2593       C  0.72746975  0.42926755  0.41322126    -0.03700
C2594       C  0.74717189  0.41835823  0.41486182     0.01800
C2595       C  0.72742810  0.37187518  0.38730723     0.08700
N2596       N  0.68668421  0.39422506  0.38703955     0.65000
H2597       H  0.69236804  0.42872752  0.40231990     0.17900
N2598       N  0.76750677  0.42565625  0.42580613     0.75500
H2599       H  0.76221444  0.39173718  0.40662047     0.09400
C2600       C  0.72801913  0.36572784  0.36009534     0.03100
C2601       C  0.72746563  0.34665003  0.35426369    -0.05600
C2602       C  0.72592154  0.33339324  0.37509040    -0.24000
C2603       C  0.72591656  0.33964750  0.40236006     0.12400
C2604       C  0.72676886  0.35868827  0.40812303    -0.13100
N2605       N  0.72904644  0.37860007  0.33810634     0.64100
H2606       H  0.72744747  0.34222559  0.33322662     0.11900
N2607       N  0.72536870  0.32694238  0.42457945     0.60700
H2608       H  0.72664982  0.36324118  0.42910386     0.08100
O2609       O  0.78312431  0.43001626  0.40979396    -0.40800
O2610       O  0.77206722  0.42269053  0.45044774    -0.39900
O2611       O  0.67432512  0.38779458  0.40554967    -0.39900
O2612       O  0.67815799  0.39795343  0.36424598    -0.37600
O2613       O  0.74363915  0.32144652  0.43466613    -0.38500
O2614       O  0.70776168  0.32581338  0.43861962    -0.34700
O2615       O  0.74767863  0.38164738  0.32689488    -0.36100
O2616       O  0.71128973  0.38254730  0.32545259    -0.40400
C2617       C  0.93580973  0.87029220  0.52873233    -0.14100
C2618       C  0.91476099  0.87528101  0.53931692     0.16300
C2619       C  0.90116494  0.86132360  0.55059270     0.02600
C2620       C  0.90901590  0.84313254  0.55222521    -0.12600
C2621       C  0.93060707  0.83813869  0.54332079    -0.03700
C2622       C  0.94375874  0.85187559  0.53040167     0.01800
C2623       C  0.90718793  0.89500892  0.53928073     0.08700
N2624       N  0.87986383  0.86555246  0.56227822     0.65000
H2625       H  0.89823376  0.83292108  0.56168260     0.17900
N2626       N  0.96536227  0.84766508  0.51963877     0.75500
H2627       H  0.94625531  0.88080633  0.51944670     0.09400
C2628       C  0.91861180  0.90869061  0.55430062     0.03100
C2629       C  0.90941463  0.92645817  0.55694006    -0.05600
C2630       C  0.88869693  0.93120222  0.54505669    -0.24000
C2631       C  0.87807148  0.91784924  0.52834277     0.12400
C2632       C  0.88733101  0.89996365  0.52574819    -0.13100
N2633       N  0.93881141  0.90448970  0.56862028     0.64100
H2634       H  0.91831614  0.93645554  0.56935610     0.11900
N2635       N  0.85733638  0.92169556  0.51504393     0.60700
H2636       H  0.87855710  0.88966786  0.51373377     0.08100
O2637       O  0.98256563  0.85274502  0.53255108    -0.40800
O2638       O  0.96710040  0.84377983  0.49474428    -0.39900
O2639       O  0.86229334  0.86074182  0.54987653    -0.39900
O2640       O  0.87877378  0.86921818  0.58729705    -0.37600
O2641       O  0.85749544  0.92544888  0.49002527    -0.38500
O2642       O  0.83935688  0.91620455  0.52581576    -0.34700
O2643       O  0.95722671  0.91026922  0.55934829    -0.36100
O2644       O  0.93767113  0.89963744  0.59318848    -0.40400
C2645       C  0.05277242  0.76278148  0.78882612    -0.14100
C2646       C  0.03556509  0.74991936  0.78378845     0.16300
C2647       C  0.03109906  0.73630483  0.80356016     0.02600
C2648       C  0.04293401  0.73633886  0.82811638    -0.12600
C2649       C  0.05981234  0.74948414  0.83375372    -0.03700
C2650       C  0.06499859  0.76262681  0.81328000     0.01800
C2651       C  0.02396230  0.75016003  0.75692181     0.08700
N2652       N  0.01560831  0.72158730  0.79858342     0.65000
H2653       H  0.03882311  0.72570489  0.84281514     0.17900
N2654       N  0.08273143  0.77575061  0.81653605     0.75500
H2655       H  0.05690203  0.77298110  0.77346799     0.09400
C2656       C  0.00080202  0.75389120  0.75404579     0.03100
C2657       C  0.99103826  0.75448995  0.72806432    -0.05600
C2658       C  0.00403652  0.75219671  0.70459989    -0.24000
C2659       C  0.02719708  0.74857107  0.70750928     0.12400
C2660       C  0.03680551  0.74740649  0.73344079    -0.13100
N2661       N  0.98730362  0.75872353  0.77690992     0.64100
H2662       H  0.97338258  0.75776517  0.72617967     0.11900
N2663       N  0.04121379  0.74569509  0.68439479     0.60700
H2664       H  0.05457552  0.74455246  0.73524975     0.08100
O2665       O  0.07796086  0.79251265  0.82112352    -0.40800
O2666       O  0.10198744  0.77173642  0.80775219    -0.39900
O2667       O  0.02301892  0.70643932  0.78940118    -0.39900
O2668       O  0.99720214  0.72156603  0.81113812    -0.37600
O2669       O  0.05284330  0.75901784  0.67564780    -0.38500
O2670       O  0.04657477  0.72934469  0.67794777    -0.34700
O2671       O  0.98623123  0.77553791  0.78392562    -0.36100
O2672       O  0.97181704  0.74788218  0.78406898    -0.40400
C2673       C  0.07975409  0.75233919  0.49831511    -0.14100
C2674       C  0.07769083  0.75523434  0.47043595     0.16300
C2675       C  0.05643364  0.75870695  0.45904054     0.02600
C2676       C  0.03758554  0.75946850  0.47588903    -0.12600
C2677       C  0.03957980  0.75608760  0.50378344    -0.03700
C2678       C  0.06096718  0.75251168  0.51502554     0.01800
C2679       C  0.09790069  0.75285035  0.45384558     0.08700
N2680       N  0.05351281  0.76052512  0.43040383     0.65000
H2681       H  0.02123303  0.76192014  0.46699397     0.17900
N2682       N  0.06404950  0.74907022  0.54334735     0.75500
H2683       H  0.09606265  0.74946015  0.50707837     0.09400
C2684       C  0.11217243  0.76781126  0.44807424     0.03100
C2685       C  0.13230745  0.76464186  0.43448744    -0.05600
C2686       C  0.13865392  0.74667257  0.42638799    -0.24000
C2687       C  0.12460007  0.73156283  0.43332550     0.12400
C2688       C  0.10442562  0.73483617  0.44690898    -0.13100
N2689       N  0.10645969  0.78632610  0.45572590     0.64100
H2690       H  0.14264038  0.77651161  0.42952308     0.11900
N2691       N  0.13052144  0.71281451  0.42723845     0.60700
H2692       H  0.09385843  0.72319457  0.45237887     0.08100
O2693       O  0.07034439  0.76222529  0.55844199    -0.40800
O2694       O  0.06720549  0.73260568  0.55113670    -0.39900
O2695       O  0.04846576  0.74633631  0.41668450    -0.39900
O2696       O  0.04982193  0.77637876  0.42053897    -0.37600
O2697       O  0.12091241  0.70478443  0.40767003    -0.38500
O2698       O  0.13952140  0.70307668  0.44552699    -0.34700
O2699       O  0.11385806  0.79273554  0.47782783    -0.36100
O2700       O  0.09960383  0.79741761  0.43773862    -0.40400
C2701       C  0.89342241  0.40213270  0.74570767    -0.14100
C2702       C  0.90920207  0.39070885  0.75860535     0.16300
C2703       C  0.93058030  0.39818803  0.76468116     0.02600
C2704       C  0.93570824  0.41646919  0.75733177    -0.12600
C2705       C  0.92019345  0.42761267  0.74348038    -0.03700
C2706       C  0.89862886  0.42034172  0.73813983     0.01800
C2707       C  0.90420636  0.37047631  0.76041154     0.08700
N2708       N  0.94755221  0.38742761  0.77777903     0.65000
H2709       H  0.95236961  0.42170909  0.76156552     0.17900
N2710       N  0.88172473  0.43110310  0.72497305     0.75500
H2711       H  0.87724238  0.39657983  0.73997550     0.09400
C2712       C  0.88375430  0.36353591  0.77086984     0.03100
C2713       C  0.87726762  0.34517659  0.76537128    -0.05600
C2714       C  0.89082104  0.33339188  0.74966534    -0.24000
C2715       C  0.91217340  0.33989288  0.74154714     0.12400
C2716       C  0.91837780  0.35825300  0.74654302    -0.13100
N2717       N  0.86904512  0.37501712  0.78643178     0.64100
H2718       H  0.86101894  0.34046916  0.77232662     0.11900
N2719       N  0.92772449  0.32825443  0.72756469     0.60700
H2720       H  0.93384278  0.36323965  0.73776208     0.08100
O2721       O  0.87805735  0.42847259  0.70003123    -0.40800
O2722       O  0.86667336  0.43855439  0.73927110    -0.39900
O2723       O  0.96336786  0.38096033  0.76365360    -0.39900
O2724       O  0.95063101  0.38965026  0.80291341    -0.37600
O2725       O  0.94300951  0.32037326  0.74099670    -0.38500
O2726       O  0.93010110  0.33017194  0.70227037    -0.34700
O2727       O  0.85113413  0.38077035  0.77571440    -0.36100
O2728       O  0.87056486  0.37471710  0.81197940    -0.40400
C2729       C  0.84652383  0.49757002  0.59404303    -0.14100
C2730       C  0.84787824  0.51136682  0.57426962     0.16300
C2731       C  0.86745104  0.52207774  0.57203467     0.02600
C2732       C  0.88521499  0.51901032  0.59003775    -0.12600
C2733       C  0.88386766  0.50534073  0.61040365    -0.03700
C2734       C  0.86414841  0.49439297  0.61200999     0.01800
C2735       C  0.82796021  0.51441683  0.55729664     0.08700
N2736       N  0.86939347  0.53639806  0.55216502     0.65000
H2737       H  0.90004958  0.52755919  0.58811980     0.17900
N2738       N  0.86122283  0.48028948  0.63204022     0.75500
H2739       H  0.83141389  0.48930078  0.59577973     0.09400
C2740       C  0.82595628  0.50585266  0.53180797     0.03100
C2741       C  0.80518700  0.50533971  0.51893089    -0.05600
C2742       C  0.78597204  0.51286227  0.53122689    -0.24000
C2743       C  0.78814877  0.52197735  0.55649774     0.12400
C2744       C  0.80912570  0.52270436  0.56921605    -0.13100
N2745       N  0.84437571  0.49631656  0.51966603     0.64100
H2746       H  0.80404605  0.49849548  0.49937576     0.11900
N2747       N  0.76915382  0.52917138  0.57062041     0.60700
H2748       H  0.81047994  0.52882662  0.58926357     0.08100
O2749       O  0.86394387  0.46355711  0.62525502    -0.40800
O2750       O  0.84989597  0.48395160  0.65298909    -0.39900
O2751       O  0.86689745  0.55305945  0.55941748    -0.39900
O2752       O  0.87944435  0.53295475  0.53021412    -0.37600
O2753       O  0.76003781  0.51932504  0.58866802    -0.38500
O2754       O  0.76587858  0.54646041  0.57077373    -0.34700
O2755       O  0.84611313  0.47902553  0.52302775    -0.36100
O2756       O  0.85457787  0.50383590  0.50014528    -0.40400
C2757       C  0.99747042  0.64783169  0.61992810    -0.14100
C2758       C  0.98688752  0.64200288  0.64376414     0.16300
C2759       C  0.97678069  0.65533984  0.66072051     0.02600
C2760       C  0.97623045  0.67395714  0.65273688    -0.12600
C2761       C  0.98578903  0.67981357  0.62806695    -0.03700
C2762       C  0.99719674  0.66647485  0.61200123     0.01800
C2763       C  0.98663672  0.62194593  0.65031358     0.08700
N2764       N  0.96619933  0.65018435  0.68559784     0.65000
H2765       H  0.96776475  0.68380364  0.66581174     0.17900
N2766       N  0.00808793  0.67129706  0.58719565     0.75500
H2767       H  0.00589065  0.63774943  0.60717641     0.09400
C2768       C  0.97631870  0.60903474  0.63285514     0.03100
C2769       C  0.97658120  0.59017589  0.63924572    -0.05600
C2770       C  0.98666371  0.58361002  0.66320664    -0.24000
C2771       C  0.99786490  0.59660612  0.68017251     0.12400
C2772       C  0.99768681  0.61553133  0.67354668    -0.13100
N2773       N  0.96434442  0.61491990  0.60926381     0.64100
H2774       H  0.96801344  0.58072801  0.62563915     0.11900
N2775       N  0.00894587  0.59114616  0.70460199     0.60700
H2776       H  0.00618329  0.62531053  0.68673257     0.08100
O2777       O  0.99906042  0.66672036  0.56500794    -0.40800
O2778       O  0.02877547  0.67488291  0.58762068    -0.39900
O2779       O  0.97578574  0.65398485  0.70776065    -0.39900
O2780       O  0.94546991  0.64677555  0.68559680    -0.37600
O2781       O  0.02988416  0.58873906  0.70422094    -0.38500
O2782       O  0.99940748  0.59415878  0.72702276    -0.34700
O2783       O  0.97275258  0.61208552  0.58613726    -0.36100
O2784       O  0.94362228  0.61811356  0.61116051    -0.40400
C2785       C  0.91278314  0.40637677  0.03972103    -0.14100
C2786       C  0.89712436  0.39361105  0.02965215     0.16300
C2787       C  0.87544617  0.40032540  0.02284037     0.02600
C2788       C  0.86974772  0.41901814  0.02758335    -0.12600
C2789       C  0.88505804  0.43145133  0.03933172    -0.03700
C2790       C  0.90711794  0.42499929  0.04441420     0.01800
C2791       C  0.90263004  0.37325794  0.03116156     0.08700
N2792       N  0.85870220  0.38833236  0.01174898     0.65000
H2793       H  0.85280645  0.42355839  0.02327039     0.17900
N2794       N  0.92406800  0.43699456  0.05492229     0.75500
H2795       H  0.92928193  0.40168732  0.04571196     0.09400
C2796       C  0.92319705  0.36559507  0.02196230     0.03100
C2797       C  0.92888866  0.34711857  0.02820678    -0.05600
C2798       C  0.91459169  0.33573465  0.04353970    -0.24000
C2799       C  0.89358524  0.34320063  0.05158155     0.12400
C2800       C  0.88815758  0.36168683  0.04578754    -0.13100
N2801       N  0.93867547  0.37625636  0.00631787     0.64100
H2802       H  0.94496664  0.34184670  0.02152599     0.11900
N2803       N  0.87729689  0.33235491  0.06567768     0.60700
H2804       H  0.87273739  0.36721376  0.05399483     0.08100
O2805       O  0.93824057  0.44375351  0.03871867    -0.40800
O2806       O  0.92886491  0.43609097  0.07983703    -0.39900
O2807       O  0.84250181  0.38343773  0.02655165    -0.39900
O2808       O  0.85652954  0.38745533  0.98630177    -0.37600
O2809       O  0.87521735  0.33440845  0.09099622    -0.38500
O2810       O  0.86126957  0.32543292  0.05236906    -0.34700
O2811       O  0.95667279  0.38156156  0.01732680    -0.36100
O2812       O  0.93782641  0.37512050  0.98077668    -0.40400
C2813       C  0.79780663  0.52625139  0.24869825    -0.14100
C2814       C  0.78646653  0.51020997  0.25729698     0.16300
C2815       C  0.78582707  0.49476311  0.23977731     0.02600
C2816       C  0.79625127  0.49557023  0.21442647    -0.12600
C2817       C  0.80754255  0.51158060  0.20547972    -0.03700
C2818       C  0.80831636  0.52709038  0.22313559     0.01800
C2819       C  0.77450075  0.51008447  0.28388413     0.08700
N2820       N  0.77506359  0.47789052  0.24755389     0.65000
H2821       H  0.79554426  0.48331994  0.20169162     0.17900
N2822       N  0.81883450  0.54403009  0.21526419     0.75500
H2823       H  0.79803956  0.53840709  0.26164254     0.09400
C2824       C  0.78568255  0.51387436  0.30850857     0.03100
C2825       C  0.77376533  0.51398980  0.33296000    -0.05600
C2826       C  0.75064304  0.51031053  0.33379039    -0.24000
C2827       C  0.73937793  0.50660530  0.30912920     0.12400
C2828       C  0.75133174  0.50659982  0.28455110    -0.13100
N2829       N  0.80929432  0.51705057  0.30928614     0.64100
H2830       H  0.78285990  0.51672883  0.35159769     0.11900
N2831       N  0.71571536  0.50373300  0.30837191     0.60700
H2832       H  0.74233490  0.50420958  0.26576035     0.08100
O2833       O  0.83770102  0.54804030  0.22523646    -0.40800
O2834       O  0.80696657  0.55678973  0.20521771    -0.39900
O2835       O  0.75636087  0.47386092  0.23714412    -0.39900
O2836       O  0.78666884  0.46516827  0.25812014    -0.37600
O2837       O  0.70300434  0.51738898  0.30392617    -0.38500
O2838       O  0.70826954  0.48752801  0.30487965    -0.34700
O2839       O  0.81642585  0.53333695  0.31296608    -0.36100
O2840       O  0.82220482  0.50355287  0.31388911    -0.40400
C2841       C  0.71678217  0.50835175  0.92349207    -0.14100
C2842       C  0.71486482  0.50575973  0.95137098     0.16300
C2843       C  0.69370289  0.50501477  0.96375381     0.02600
C2844       C  0.67445336  0.50690416  0.94775014    -0.12600
C2845       C  0.67637436  0.50995310  0.91965142    -0.03700
C2846       C  0.69778084  0.51050368  0.90754196     0.01800
C2847       C  0.73524319  0.50692052  0.96746712     0.08700
N2848       N  0.69177328  0.50273726  0.99249700     0.65000
H2849       H  0.65808855  0.50627849  0.95722363     0.17900
N2850       N  0.70059520  0.51258502  0.87893457     0.75500
H2851       H  0.73319855  0.50916633  0.91415689     0.09400
C2852       C  0.74952396  0.49165311  0.97079629     0.03100
C2853       C  0.76939607  0.49384309  0.98523338    -0.05600
C2854       C  0.77522954  0.51113069  0.99643411    -0.24000
C2855       C  0.76108936  0.52660785  0.99195035     0.12400
C2856       C  0.74123233  0.52428576  0.97760630    -0.13100
N2857       N  0.74385515  0.47381020  0.96020620     0.64100
H2858       H  0.77985283  0.48175387  0.98844999     0.11900
N2859       N  0.76659186  0.54479673  0.00140333     0.60700
H2860       H  0.73042638  0.53615725  0.97418860     0.08100
O2861       O  0.70363305  0.49826383  0.86466756    -0.40800
O2862       O  0.70670054  0.52811585  0.86976848    -0.39900
O2863       O  0.69216113  0.51685475  0.00765281    -0.39900
O2864       O  0.69479676  0.48690820  0.00278557    -0.37600
O2865       O  0.77447554  0.55638990  0.98477931    -0.38500
O2866       O  0.75775605  0.55063054  0.02305302    -0.34700
O2867       O  0.75146413  0.46898213  0.93738181    -0.36100
O2868       O  0.73632859  0.46158197  0.97607856    -0.40400
C2869       C  0.92125547  0.49464360  0.87038552    -0.14100
C2870       C  0.90046629  0.50300420  0.87561631     0.16300
C2871       C  0.88924067  0.51187500  0.85391819     0.02600
C2872       C  0.89861689  0.51190700  0.82780693    -0.12600
C2873       C  0.91936978  0.50346083  0.82239422    -0.03700
C2874       C  0.93087602  0.49493855  0.84432778     0.01800
C2875       C  0.89207574  0.50390255  0.90423862     0.08700
N2876       N  0.86808415  0.52073923  0.85779032     0.65000
H2877       H  0.88934585  0.51853551  0.81156447     0.17900
N2878       N  0.95292988  0.48754465  0.84113285     0.75500
H2879       H  0.93058149  0.48845250  0.88694763     0.09400
C2880       C  0.88859447  0.48782877  0.92014352     0.03100
C2881       C  0.88222633  0.48945831  0.94749730    -0.05600
C2882       C  0.87953861  0.50687065  0.95995121    -0.24000
C2883       C  0.88307312  0.52293947  0.94402865     0.12400
C2884       C  0.88921632  0.52130214  0.91657835    -0.13100
N2885       N  0.89124136  0.46968487  0.90890636     0.64100
H2886       H  0.87968360  0.47691475  0.95921570     0.11900
N2887       N  0.87982787  0.54107327  0.95500109     0.60700
H2888       H  0.89221580  0.53380188  0.90494481     0.08100
O2889       O  0.95560522  0.47018338  0.84104788    -0.40800
O2890       O  0.96954169  0.49785839  0.84598951    -0.39900
O2891       O  0.86734245  0.53822101  0.85878552    -0.39900
O2892       O  0.85046073  0.51189911  0.85207136    -0.37600
O2893       O  0.89672781  0.55049297  0.96184705    -0.38500
O2894       O  0.86148699  0.54927027  0.95070108    -0.34700
O2895       O  0.90828321  0.46028285  0.91529620    -0.36100
O2896       O  0.87425227  0.46142742  0.89960238    -0.40400
C2897       C  0.91833733  0.86140458  0.24462199    -0.14100
C2898       C  0.90693882  0.87201715  0.26395436     0.16300
C2899       C  0.88805947  0.86410170  0.27694740     0.02600
C2900       C  0.88067309  0.84626619  0.26960924    -0.12600
C2901       C  0.89175247  0.83590541  0.24951170    -0.03700
C2902       C  0.91139817  0.84354145  0.23773966     0.01800
C2903       C  0.91302716  0.89204081  0.26624660     0.08700
N2904       N  0.87600480  0.87394831  0.29744001     0.65000
H2905       H  0.86575260  0.84077374  0.27918892     0.17900
N2906       N  0.92461161  0.83359967  0.21842821     0.75500
H2907       H  0.93223951  0.86732660  0.23353961     0.09400
C2908       C  0.93559218  0.89804963  0.26849216     0.03100
C2909       C  0.94113591  0.91657361  0.26312877    -0.05600
C2910       C  0.92474969  0.92937808  0.25518747    -0.24000
C2911       C  0.90208120  0.92379031  0.25510391     0.12400
C2912       C  0.89648371  0.90529118  0.26044567    -0.13100
N2913       N  0.95331329  0.88544681  0.27494661     0.64100
H2914       H  0.95861505  0.92064984  0.26349730     0.11900
N2915       N  0.88448181  0.93662295  0.24935099     0.60700
H2916       H  0.87919016  0.90107908  0.25810572     0.08100
O2917       O  0.92293989  0.83773944  0.19361767    -0.40800
O2918       O  0.94199348  0.82532474  0.22656938    -0.39900
O2919       O  0.85690184  0.88041891  0.29185761    -0.39900
O2920       O  0.88113369  0.87130501  0.32198779    -0.37600
O2921       O  0.87518915  0.93619182  0.22634678    -0.38500
O2922       O  0.87428555  0.94411332  0.26893007    -0.34700
O2923       O  0.96657266  0.88045728  0.25637197    -0.36100
O2924       O  0.95970264  0.88424517  0.29930054    -0.40400
C2925       C  0.99600429  0.74400081  0.07311241    -0.14100
C2926       C  0.97851323  0.75491596  0.06306072     0.16300
C2927       C  0.98150608  0.76496554  0.03891836     0.02600
C2928       C  0.00192728  0.76423053  0.02555208    -0.12600
C2929       C  0.01973079  0.75338436  0.03543863    -0.03700
C2930       C  0.01639376  0.74283903  0.05935909     0.01800
C2931       C  0.95808887  0.75706555  0.07929702     0.08700
N2932       N  0.96383591  0.77575216  0.02734154     0.65000
H2933       H  0.00357321  0.77211922  0.00694546     0.17900
N2934       N  0.03337730  0.73123670  0.07059111     0.75500
H2935       H  0.99402069  0.73660814  0.09210592     0.09400
C2936       C  0.94539672  0.74168003  0.08778026     0.03100
C2937       C  0.92678650  0.74442709  0.10421576    -0.05600
C2938       C  0.92052640  0.76229588  0.11255003    -0.24000
C2939       C  0.93313525  0.77773852  0.10377524     0.12400
C2940       C  0.95189787  0.77493276  0.08754196    -0.13100
N2941       N  0.95105866  0.72318642  0.07991594     0.64100
H2942       H  0.91753288  0.73236585  0.11101052     0.11900
N2943       N  0.92692750  0.79634359  0.11042891     0.60700
H2944       H  0.96187784  0.78680986  0.08162425     0.08100
O2945       O  0.04374055  0.73696356  0.09124501    -0.40800
O2946       O  0.03204733  0.71397489  0.06668281    -0.39900
O2947       O  0.96504144  0.79321909  0.02823473    -0.39900
O2948       O  0.95088636  0.76823426  0.01033396    -0.37600
O2949       O  0.93693144  0.80450347  0.12959162    -0.38500
O2950       O  0.91676103  0.80592681  0.09288162    -0.34700
O2951       O  0.95979999  0.71249904  0.09723039    -0.36100
O2952       O  0.94165720  0.71625285  0.05932915    -0.40400
C2953       C  0.90138776  0.74701257  0.36759209    -0.14100
C2954       C  0.89634197  0.76292828  0.38277201     0.16300
C2955       C  0.88498341  0.77765977  0.37009165     0.02600
C2956       C  0.87904558  0.77633423  0.34266032    -0.12600
C2957       C  0.88420800  0.76050150  0.32706173    -0.03700
C2958       C  0.89543294  0.74559559  0.34006834     0.01800
C2959       C  0.90491394  0.76436134  0.41098282     0.08700
N2960       N  0.88003235  0.79439176  0.38441043     0.65000
H2961       H  0.87061745  0.78806982  0.33346827     0.17900
N2962       N  0.90065156  0.72879171  0.32603948     0.75500
H2963       H  0.91023956  0.73562661  0.37716825     0.09400
C2964       C  0.89129880  0.76081223  0.43374008     0.03100
C2965       C  0.90082673  0.76044314  0.45977078    -0.05600
C2966       C  0.92384321  0.76372369  0.46383876    -0.24000
C2967       C  0.93729365  0.76777990  0.44096526     0.12400
C2968       C  0.92776392  0.76792925  0.41491499    -0.13100
N2969       N  0.86793010  0.75701586  0.43080225     0.64100
H2970       H  0.89007036  0.75750042  0.47695080     0.11900
N2971       N  0.96081880  0.77092908  0.44350372     0.60700
H2972       H  0.93840413  0.77050176  0.39749850     0.08100
O2973       O  0.88815249  0.71485790  0.32929581    -0.40800
O2974       O  0.92023037  0.72643640  0.31703409    -0.39900
O2975       O  0.89319972  0.80798670  0.38213268    -0.39900
O2976       O  0.86021721  0.79726059  0.39224505    -0.37600
O2977       O  0.97415975  0.75760034  0.43970457    -0.38500
O2978       O  0.96813737  0.78732325  0.44225878    -0.34700
O2979       O  0.86121444  0.74045883  0.43237011    -0.36100
O2980       O  0.85405694  0.77000010  0.43431040    -0.40400
C2981       C  0.81536548  0.65795961  0.12818691    -0.14100
C2982       C  0.80888043  0.64552206  0.14857524     0.16300
C2983       C  0.80442017  0.65259632  0.17476668     0.02600
C2984       C  0.80763984  0.67150024  0.18036343    -0.12600
C2985       C  0.81535992  0.68389195  0.16037972    -0.03700
C2986       C  0.81849044  0.67692336  0.13368469     0.01800
C2987       C  0.81060864  0.62518622  0.14314764     0.08700
N2988       N  0.79668126  0.64079292  0.19606719     0.65000
H2989       H  0.80480356  0.67631589  0.20091815     0.17900
N2990       N  0.82470458  0.68875770  0.11172019     0.75500
H2991       H  0.81896415  0.65279368  0.10798907     0.09400
C2992       C  0.79871317  0.61623857  0.12209260     0.03100
C2993       C  0.80357689  0.59772800  0.11532338    -0.05600
C2994       C  0.82034460  0.58761880  0.12898055    -0.24000
C2995       C  0.83188532  0.59664955  0.15054632     0.12400
C2996       C  0.82689196  0.61509122  0.15724607    -0.13100
N2997       N  0.78139945  0.62559902  0.10752576     0.64100
H2998       H  0.79419361  0.59134244  0.09896366     0.11900
N2999       N  0.84937545  0.58781298  0.16546593     0.60700
H3000       H  0.83661127  0.62185429  0.17299897     0.08100
O3001       O  0.80946090  0.69535702  0.09681655    -0.40800
O3002       O  0.84438926  0.68780440  0.10252741    -0.39900
O3003       O  0.81025786  0.63572372  0.21426071    -0.39900
O3004       O  0.77594141  0.64007103  0.20086653    -0.37600
O3005       O  0.86940975  0.59161755  0.15951852    -0.38500
O3006       O  0.84508248  0.58181712  0.18894549    -0.34700
O3007       O  0.78522970  0.63107261  0.08365216    -0.36100
O3008       O  0.76136943  0.62349459  0.11507194    -0.40400
C3009       C  0.64355221  0.65161318  0.79848860    -0.14100
C3010       C  0.65688534  0.63985059  0.78266797     0.16300
C3011       C  0.67642831  0.64726688  0.77054190     0.02600
C3012       C  0.68291065  0.66568676  0.77605479    -0.12600
C3013       C  0.67011520  0.67716048  0.79316087    -0.03700
C3014       C  0.64968430  0.67001353  0.80354897     0.01800
C3015       C  0.65002045  0.61992119  0.78078916     0.08700
N3016       N  0.68939163  0.63671211  0.75169908     0.65000
H3017       H  0.69830075  0.67089031  0.76724997     0.17900
N3018       N  0.63468798  0.68117300  0.81919621     0.75500
H3019       H  0.62828984  0.64634197  0.80756784     0.09400
C3020       C  0.66322798  0.60567488  0.79217708     0.03100
C3021       C  0.65425712  0.58790060  0.79555887    -0.05600
C3022       C  0.63178787  0.58381424  0.78925732    -0.24000
C3023       C  0.61873955  0.59782680  0.77685339     0.12400
C3024       C  0.62803434  0.61555444  0.77247212    -0.13100
N3025       N  0.68474713  0.60937066  0.80367553     0.64100
H3026       H  0.66473089  0.57746361  0.80504780     0.11900
N3027       N  0.59555421  0.59502744  0.77097223     0.60700
H3028       H  0.61746377  0.62639059  0.76418334     0.08100
O3029       O  0.63387648  0.67888396  0.84457400    -0.40800
O3030       O  0.61843332  0.68893551  0.80737824    -0.39900
O3031       O  0.68418555  0.63737000  0.72688432    -0.39900
O3032       O  0.70909096  0.63210301  0.75808766    -0.37600
O3033       O  0.58110426  0.60083004  0.78762958    -0.38500
O3034       O  0.58970463  0.59178826  0.74681008    -0.34700
O3035       O  0.68584269  0.61400333  0.82835522    -0.36100
O3036       O  0.70179585  0.60228792  0.79265353    -0.40400
C3037       C  0.77800839  0.74381027  0.99099010    -0.14100
C3038       C  0.77274940  0.75891509  0.00761744     0.16300
C3039       C  0.75807716  0.77268283  0.99762574     0.02600
C3040       C  0.74865255  0.77082268  0.97162819    -0.12600
C3041       C  0.75387565  0.75564184  0.95478137    -0.03700
C3042       C  0.76903020  0.74207150  0.96487975     0.01800
C3043       C  0.78382479  0.76005782  0.03460861     0.08700
N3044       N  0.75360552  0.78920407  0.01270962     0.65000
H3045       H  0.73758034  0.78165972  0.96439622     0.17900
N3046       N  0.77572796  0.72637084  0.94913975     0.75500
H3047       H  0.78944510  0.73324332  0.99831160     0.09400
C3048       C  0.77169537  0.75861452  0.05907627     0.03100
C3049       C  0.78308093  0.75870209  0.08391922    -0.05600
C3050       C  0.80654281  0.75939714  0.08507142    -0.24000
C3051       C  0.81879184  0.76003710  0.06060700     0.12400
C3052       C  0.80735425  0.76062258  0.03572204    -0.13100
N3053       N  0.74804693  0.75563161  0.05917294     0.64100
H3054       H  0.77348405  0.75768529  0.10253842     0.11900
N3055       N  0.84271951  0.76058854  0.06058284     0.60700
H3056       H  0.81692467  0.76128623  0.01705637     0.08100
O3057       O  0.79397408  0.72705507  0.93625720    -0.40800
O3058       O  0.76723718  0.71075262  0.95436416    -0.39900
O3059       O  0.76587907  0.80319898  0.00882948    -0.39900
O3060       O  0.73430582  0.79156687  0.02253210    -0.37600
O3061       O  0.85350153  0.74577398  0.05662118    -0.38500
O3062       O  0.85249047  0.77594214  0.05732058    -0.34700
O3063       O  0.74086160  0.73917133  0.05921891    -0.36100
O3064       O  0.73541041  0.76839127  0.06769266    -0.40400
C3065       C  0.84316315  0.76842900  0.67991927    -0.14100
C3066       C  0.84147592  0.75244699  0.69577483     0.16300
C3067       C  0.85767016  0.73845901  0.69358849     0.02600
C3068       C  0.87602121  0.74104705  0.67658599    -0.12600
C3069       C  0.87860524  0.75748146  0.66149966    -0.03700
C3070       C  0.86141233  0.77107276  0.66265390     0.01800
C3071       C  0.82259235  0.75082406  0.71450311     0.08700
N3072       N  0.85588024  0.72164003  0.70871437     0.65000
H3073       H  0.88843603  0.73011580  0.67557843     0.17900
N3074       N  0.86218282  0.78775177  0.64702209     0.75500
H3075       H  0.83034015  0.77904866  0.68125484     0.09400
C3076       C  0.82378234  0.75854420  0.74064134     0.03100
C3077       C  0.80477597  0.75873035  0.75693965    -0.05600
C3078       C  0.78430524  0.75159056  0.74747993    -0.24000
C3079       C  0.78322393  0.74374551  0.72122079     0.12400
C3080       C  0.80242895  0.74337168  0.70501127    -0.13100
N3081       N  0.84392286  0.76686726  0.75055218     0.64100
H3082       H  0.80606646  0.76467805  0.77710287     0.11900
N3083       N  0.76257183  0.73739110  0.70991546     0.60700
H3084       H  0.80141178  0.73789732  0.68454217     0.08100
O3085       O  0.86974979  0.80232655  0.65786038    -0.40800
O3086       O  0.84991843  0.78911382  0.62622812    -0.39900
O3087       O  0.84874399  0.70723366  0.69699715    -0.39900
O3088       O  0.86660270  0.72005515  0.73067448    -0.37600
O3089       O  0.75066753  0.74860239  0.69654072    -0.38500
O3090       O  0.75939492  0.72019607  0.70709770    -0.34700
O3091       O  0.84532647  0.78432220  0.75148428    -0.36100
O3092       O  0.85734030  0.75723255  0.76444549    -0.40400
C3093       C  0.64276071  0.10431351  0.00886152    -0.14100
C3094       C  0.65952419  0.11762108  0.01264038     0.16300
C3095       C  0.68180690  0.11181672  0.01689858     0.02600
C3096       C  0.68723747  0.09300135  0.01468623    -0.12600
C3097       C  0.67083178  0.07988404  0.00785800    -0.03700
C3098       C  0.64816922  0.08554408  0.00636319     0.01800
C3099       C  0.65352188  0.13723630  0.00810681     0.08700
N3100       N  0.69922873  0.12482418  0.02261483     0.65000
H3101       H  0.70466151  0.08888995  0.01621447     0.17900
N3102       N  0.63055239  0.07262276  0.00099927     0.75500
H3103       H  0.62551893  0.10864736  0.00604486     0.09400
C3104       C  0.65906414  0.14596598  0.98349704     0.03100
C3105       C  0.65041566  0.16344408  0.97759922    -0.05600
C3106       C  0.63562117  0.17261373  0.99538960    -0.24000
C3107       C  0.63015918  0.16379280  0.02024440     0.12400
C3108       C  0.63915182  0.14626183  0.02630607    -0.13100
N3109       N  0.67183352  0.13665069  0.96307633     0.64100
H3110       H  0.65480181  0.16947071  0.95817884     0.11900
N3111       N  0.61546422  0.17215554  0.03952295     0.60700
H3112       H  0.63436659  0.13940136  0.04499693     0.08100
O3113       O  0.62158473  0.07245291  0.97778893    -0.40800
O3114       O  0.62008683  0.06563024  0.02074287    -0.39900
O3115       O  0.70412212  0.12811387  0.04706847    -0.39900
O3116       O  0.71351534  0.12834583  0.00448594    -0.37600
O3117       O  0.59514982  0.16732572  0.03987332    -0.38500
O3118       O  0.62380642  0.17964419  0.06035711    -0.34700
O3119       O  0.66156672  0.12798653  0.94459720    -0.36100
O3120       O  0.69175616  0.14170572  0.95886998    -0.40400
C3121       C  0.74299692  0.00292800  0.78111615    -0.14100
C3122       C  0.76486013  0.00987637  0.77845199     0.16300
C3123       C  0.77550642  0.01744793  0.80145054     0.02600
C3124       C  0.76446452  0.01772793  0.82643141    -0.12600
C3125       C  0.74268960  0.01054480  0.82951952    -0.03700
C3126       C  0.73183385  0.00318742  0.80627965     0.01800
C3127       C  0.77592671  0.00998678  0.75138498     0.08700
N3128       N  0.79794347  0.02428061  0.80014446     0.65000
H3129       H  0.77343229  0.02326716  0.84377475     0.17900
N3130       N  0.70932944  0.99651866  0.80741954     0.75500
H3131       H  0.73438315  0.99752481  0.76342199     0.09400
C3132       C  0.78052776  0.99346258  0.73714694     0.03100
C3133       C  0.79102553  0.99415450  0.71175143    -0.05600
C3134       C  0.79738778  0.01109844  0.69995682    -0.24000
C3135       C  0.79237392  0.02766654  0.71406000     0.12400
C3136       C  0.78178293  0.02696467  0.73948601    -0.13100
N3137       N  0.77557968  0.97577418  0.74866841     0.64100
H3138       H  0.79473962  0.98121212  0.70148479     0.11900
N3139       N  0.79787028  0.04535856  0.70311377     0.60700
H3140       H  0.77801786  0.03981202  0.74998211     0.08100
O3141       O  0.70593863  0.97924568  0.80733175    -0.40800
O3142       O  0.69358937  0.00724896  0.80061891    -0.39900
O3143       O  0.80139044  0.04146418  0.80269516    -0.39900
O3144       O  0.81394951  0.01314444  0.80393407    -0.37600
O3145       O  0.78306331  0.05427900  0.69028376    -0.38500
O3146       O  0.81404252  0.05405811  0.71352312    -0.34700
O3147       O  0.75871708  0.96692594  0.74023704    -0.36100
O3148       O  0.79082563  0.96717901  0.76119168    -0.40400
C3149       C  0.81323938  0.98649336  0.06356193    -0.14100
C3150       C  0.82226298  0.00346949  0.07195597     0.16300
C3151       C  0.81252756  0.02016818  0.06293213     0.02600
C3152       C  0.79375907  0.01959732  0.04608925    -0.12600
C3153       C  0.78479627  0.00261188  0.03748723    -0.03700
C3154       C  0.79468320  0.98589411  0.04639086     0.01800
C3155       C  0.84274104  0.00324664  0.08853606     0.08700
N3156       N  0.82154322  0.03779166  0.07047071     0.65000
H3157       H  0.78651844  0.03254013  0.03911524     0.17900
N3158       N  0.78586681  0.96821050  0.03881762     0.75500
H3159       H  0.82093891  0.97359451  0.06995125     0.09400
C3160       C  0.84342772  0.99399918  0.11365609     0.03100
C3161       C  0.86361723  0.99254196  0.12761503    -0.05600
C3162       C  0.88340774  0.00026665  0.11716577    -0.24000
C3163       C  0.88264712  0.00959288  0.09189461     0.12400
C3164       C  0.86238059  0.01085953  0.07782065    -0.13100
N3165       N  0.82367942  0.98637502  0.12562614     0.64100
H3166       H  0.86357198  0.98568896  0.14719153     0.11900
N3167       N  0.90215747  0.01751273  0.07979019     0.60700
H3168       H  0.86210204  0.01745006  0.05805414     0.08100
O3169       O  0.77385721  0.95949587  0.05557599    -0.40800
O3170       O  0.79489998  0.95943344  0.01954315    -0.39900
O3171       O  0.83299526  0.04673813  0.05339648    -0.39900
O3172       O  0.81326410  0.04626888  0.09050309    -0.37600
O3173       O  0.90325556  0.03491259  0.07736882    -0.38500
O3174       O  0.91423127  0.00748828  0.06472627    -0.34700
O3175       O  0.82115073  0.96899918  0.12598916    -0.36100
O3176       O  0.81237021  0.99625136  0.14172838    -0.40400
C3177       C  0.72831708  0.90344431  0.87616664    -0.14100
C3178       C  0.73683803  0.89144365  0.89600903     0.16300
C3179       C  0.74401895  0.89884971  0.92102692     0.02600
C3180       C  0.74184619  0.91786834  0.92603259    -0.12600
C3181       C  0.73260324  0.92992941  0.90655361    -0.03700
C3182       C  0.72615857  0.92250821  0.88110575     0.01800
C3183       C  0.73772937  0.87131875  0.88989961     0.08700
N3184       N  0.75409765  0.88744149  0.94136010     0.65000
H3185       H  0.74708698  0.92311903  0.94565479     0.17900
N3186       N  0.71771495  0.93399709  0.85982509     0.75500
H3187       H  0.72308831  0.89791496  0.85669205     0.09400
C3188       C  0.72301916  0.85874814  0.90244724     0.03100
C3189       C  0.72276687  0.84019470  0.89431209    -0.05600
C3190       C  0.73648142  0.83358638  0.87311312    -0.24000
C3191       C  0.75141253  0.84630872  0.86063731     0.12400
C3192       C  0.75190300  0.86491429  0.86921928    -0.13100
N3193       N  0.70683401  0.86479587  0.92189930     0.64100
H3194       H  0.71084812  0.83111099  0.90414327     0.11900
N3195       N  0.76601411  0.84086883  0.83910466     0.60700
H3196       H  0.76308731  0.87456713  0.85919420     0.08100
O3197       O  0.69742358  0.93244008  0.85300755    -0.40800
O3198       O  0.73135702  0.94112805  0.84329544    -0.39900
O3199       O  0.77518763  0.88683011  0.94280763    -0.39900
O3200       O  0.74277800  0.88308776  0.96200501    -0.37600
O3201       O  0.75991347  0.84363182  0.81490649    -0.38500
O3202       O  0.78659687  0.83879873  0.84412253    -0.34700
O3203       O  0.68811419  0.87057329  0.91350734    -0.36100
O3204       O  0.70846178  0.85920474  0.94608737    -0.40400
C3205       C  0.63333218  0.64806854  0.52143818    -0.14100
C3206       C  0.65465204  0.64309169  0.51165885     0.16300
C3207       C  0.66794687  0.65685648  0.49924779     0.02600
C3208       C  0.65935064  0.67469644  0.49567892    -0.12600
C3209       C  0.63720795  0.67916652  0.50279845    -0.03700
C3210       C  0.62430720  0.66575194  0.51666181     0.01800
C3211       C  0.65997677  0.62302291  0.50891829     0.08700
N3212       N  0.68907826  0.65265928  0.48713454     0.65000
H3213       H  0.66969980  0.68480129  0.48529019     0.17900
N3214       N  0.60134716  0.66894109  0.52333085     0.75500
H3215       H  0.62279549  0.63759532  0.53070952     0.09400
C3216       C  0.67960505  0.61460629  0.51921272     0.03100
C3217       C  0.68405659  0.59592069  0.51338647    -0.05600
C3218       C  0.66922633  0.58524924  0.49764905    -0.24000
C3219       C  0.64883028  0.59340656  0.48908615     0.12400
C3220       C  0.64464298  0.61207707  0.49447446    -0.13100
N3221       N  0.69489318  0.62444751  0.53625369     0.64100
H3222       H  0.69956499  0.58990874  0.52070489     0.11900
N3223       N  0.63199039  0.58305220  0.47504597     0.60700
H3224       H  0.62930347  0.61819144  0.48677402     0.08100
O3225       O  0.59610414  0.67155083  0.54784541    -0.40800
O3226       O  0.58640790  0.66376024  0.50683492    -0.39900
O3227       O  0.68943364  0.64748065  0.46265860    -0.39900
O3228       O  0.70646495  0.65995076  0.49708116    -0.37600
O3229       O  0.61532883  0.57715012  0.48821266    -0.38500
O3230       O  0.63045524  0.58459206  0.44959392    -0.34700
O3231       O  0.69235279  0.62335956  0.56162843    -0.36100
O3232       O  0.71406533  0.62830320  0.52710506    -0.40400
C3233       C  0.70292847  0.75946364  0.33164314    -0.14100
C3234       C  0.72180561  0.75324448  0.34591602     0.16300
C3235       C  0.71942938  0.74590535  0.37207615     0.02600
C3236       C  0.69822790  0.74456906  0.38346713    -0.12600
C3237       C  0.67910069  0.75060136  0.36935795    -0.03700
C3238       C  0.68155973  0.75834737  0.34320484     0.01800
C3239       C  0.74372556  0.75402072  0.33269573     0.08700
N3240       N  0.73839106  0.74015797  0.38764495     0.65000
H3241       H  0.69685643  0.73914016  0.40391578     0.17900
N3242       N  0.66271229  0.76432358  0.32761942     0.75500
H3243       H  0.70481035  0.76505432  0.31134557     0.09400
C3244       C  0.75164254  0.73876230  0.31791503     0.03100
C3245       C  0.77097292  0.74052904  0.30250275    -0.05600
C3246       C  0.78246890  0.75752828  0.30072781    -0.24000
C3247       C  0.77528405  0.77252109  0.31719021     0.12400
C3248       C  0.75587777  0.77061686  0.33292427    -0.13100
N3249       N  0.73934487  0.72178127  0.31665732     0.64100
H3250       H  0.77629880  0.72860298  0.29075838     0.11900
N3251       N  0.78676968  0.78989971  0.31755318     0.60700
H3252       H  0.74981335  0.78233711  0.34460003     0.08100
O3253       O  0.65840234  0.78143435  0.32628828    -0.40800
O3254       O  0.65525939  0.75372469  0.30933446    -0.39900
O3255       O  0.74519788  0.75043056  0.40669282    -0.39900
O3256       O  0.74397852  0.72328421  0.38747236    -0.37600
O3257       O  0.77927206  0.80312891  0.30345602    -0.38500
O3258       O  0.79988866  0.79341249  0.33699486    -0.34700
O3259       O  0.72777851  0.71833040  0.29579934    -0.36100
O3260       O  0.74478938  0.70862171  0.33218414    -0.40400
C3261       C  0.65838126  0.76719400  0.61338391    -0.14100
C3262       C  0.65297437  0.75169809  0.62915627     0.16300
C3263       C  0.63887241  0.73796602  0.61809932     0.02600
C3264       C  0.63080466  0.73973796  0.59151821    -0.12600
C3265       C  0.63622759  0.75518846  0.57536881    -0.03700
C3266       C  0.65006303  0.76919155  0.58687989     0.01800
C3267       C  0.66025901  0.75114207  0.65795168     0.08700
N3268       N  0.63272040  0.72198173  0.63347901     0.65000
H3269       H  0.62030973  0.72876665  0.58348771     0.17900
N3270       N  0.65523121  0.78588420  0.57258333     0.75500
H3271       H  0.66865419  0.77811261  0.62200905     0.09400
C3272       C  0.68279072  0.74823782  0.66548050     0.03100
C3273       C  0.68886182  0.74847664  0.69297098    -0.05600
C3274       C  0.67301586  0.75212543  0.71335715    -0.24000
C3275       C  0.65056007  0.75550652  0.70565490     0.12400
C3276       C  0.64440031  0.75479340  0.67820383    -0.13100
N3277       N  0.69972911  0.74498087  0.64557529     0.64100
H3278       H  0.70620171  0.74606763  0.69837661     0.11900
N3279       N  0.63361132  0.75915715  0.72537544     0.60700
H3280       H  0.62711020  0.75736008  0.67260501     0.08100
O3281       O  0.67422771  0.78754149  0.56164573    -0.40800
O3282       O  0.64385032  0.80027389  0.57736669    -0.39900
O3283       O  0.61396665  0.72171292  0.64526428    -0.39900
O3284       O  0.64279331  0.70687766  0.62916938    -0.37600
O3285       O  0.62110235  0.74605936  0.73299885    -0.38500
O3286       O  0.62743427  0.77567850  0.72933675    -0.34700
O3287       O  0.71298277  0.75796831  0.63952604    -0.36100
O3288       O  0.70521936  0.72849426  0.64012371    -0.40400
C3289       C  0.63232967  0.11234930  0.26351285    -0.14100
C3290       C  0.64902146  0.11987516  0.28031581     0.16300
C3291       C  0.65876311  0.10867189  0.30043862     0.02600
C3292       C  0.65155454  0.09046378  0.30375247    -0.12600
C3293       C  0.63393717  0.08293199  0.28813295    -0.03700
C3294       C  0.62471046  0.09403612  0.26715620     0.01800
C3295       C  0.65332648  0.14006805  0.28014780     0.08700
N3296       N  0.67429101  0.11607849  0.31972332     0.65000
H3297       H  0.65920058  0.08258513  0.32002871     0.17900
N3298       N  0.60722965  0.08737388  0.24992413     0.75500
H3299       H  0.62451272  0.12100538  0.24821564     0.09400
C3300       C  0.67397193  0.14768986  0.27195880     0.03100
C3301       C  0.67861568  0.16637528  0.27721268    -0.05600
C3302       C  0.66312921  0.17769186  0.29090256    -0.24000
C3303       C  0.64174961  0.17030535  0.29714293     0.12400
C3304       C  0.63711824  0.15165642  0.29167801    -0.13100
N3305       N  0.69054776  0.13667717  0.25864672     0.64100
H3306       H  0.69497019  0.17173492  0.27179861     0.11900
N3307       N  0.62461226  0.18130211  0.30942971     0.60700
H3308       H  0.62107385  0.14594857  0.29770822     0.08100
O3309       O  0.61215826  0.08182262  0.22637294    -0.40800
O3310       O  0.58728393  0.09204535  0.25492558    -0.39900
O3311       O  0.66683208  0.12273473  0.34162777    -0.39900
O3312       O  0.69449012  0.11098153  0.31870276    -0.37600
O3313       O  0.60969048  0.18834181  0.29447471    -0.38500
O3314       O  0.62064107  0.17923986  0.33440378    -0.34700
O3315       O  0.69205080  0.13754848  0.23313254    -0.36100
O3316       O  0.70719185  0.13100775  0.27208240    -0.40400
C3317       C  0.70087429  0.99903606  0.45470854    -0.14100
C3318       C  0.71932216  0.00808831  0.44317929     0.16300
C3319       C  0.71707876  0.01679097  0.41787622     0.02600
C3320       C  0.69635152  0.01679079  0.40484971    -0.12600
C3321       C  0.67747202  0.00814063  0.41646381    -0.03700
C3322       C  0.68004212  0.99884959  0.44155142     0.01800
C3323       C  0.74039363  0.00914397  0.45861620     0.08700
N3324       N  0.73552183  0.02610032  0.40541285     0.65000
H3325       H  0.69514183  0.02367896  0.38535544     0.17900
N3326       N  0.66175218  0.98966501  0.45445674     0.75500
H3327       H  0.70261834  0.99226152  0.47423905     0.09400
C3328       C  0.74198054  0.02080750  0.48130967     0.03100
C3329       C  0.76148210  0.02099960  0.49669164    -0.05600
C3330       C  0.77995856  0.00973611  0.49004545    -0.24000
C3331       C  0.77851013  0.99825473  0.46673480     0.12400
C3332       C  0.75873029  0.99809550  0.45124846    -0.13100
N3333       N  0.72392783  0.03271822  0.48896029     0.64100
H3334       H  0.76178589  0.02989396  0.51442731     0.11900
N3335       N  0.79686106  0.98701104  0.45806525     0.60700
H3336       H  0.75758025  0.98917644  0.43357734     0.08100
O3337       O  0.65194322  0.99764803  0.47390746    -0.40800
O3338       O  0.66008988  0.97228958  0.45214118    -0.39900
O3339       O  0.74536361  0.01850680  0.38565421    -0.39900
O3340       O  0.73809386  0.04325871  0.40940174    -0.37600
O3341       O  0.80933920  0.99291138  0.43930035    -0.38500
O3342       O  0.79643300  0.96984121  0.46297368    -0.34700
O3343       O  0.71119345  0.02791695  0.50813728    -0.36100
O3344       O  0.72445252  0.04951740  0.48182671    -0.40400
C3345       C  0.67616077  0.01506183  0.12512530    -0.14100
C3346       C  0.65708957  0.00431695  0.13046027     0.16300
C3347       C  0.64682554  0.99477734  0.10875069     0.02600
C3348       C  0.65605299  0.99571073  0.08267814    -0.12600
C3349       C  0.67545051  0.00617717  0.07717394    -0.03700
C3350       C  0.68538232  0.01613573  0.09894742     0.01800
C3351       C  0.64767403  0.00401160  0.15846663     0.08700
N3352       N  0.62718618  0.98378797  0.11274687     0.65000
H3353       H  0.64773223  0.98812228  0.06657481     0.17900
N3354       N  0.70489002  0.02730400  0.09522616     0.75500
H3355       H  0.68384341  0.02293734  0.14139927     0.09400
C3356       C  0.66058273  0.99838203  0.18102903     0.03100
C3357       C  0.65140761  0.99892890  0.20714275    -0.05600
C3358       C  0.62949852  0.00531124  0.21175433    -0.24000
C3359       C  0.61669223  0.01120968  0.18916886     0.12400
C3360       C  0.62580324  0.01042081  0.16292262    -0.13100
N3361       N  0.68307387  0.99198214  0.17791914     0.64100
H3362       H  0.66175856  0.99451293  0.22403678     0.11900
N3363       N  0.59408845  0.01723332  0.19211742     0.60700
H3364       H  0.61578672  0.01514696  0.14592521     0.08100
O3365       O  0.72362320  0.02101048  0.10273165    -0.40800
O3366       O  0.70258286  0.04459370  0.09236450    -0.39900
O3367       O  0.60850426  0.99008502  0.10504496    -0.39900
O3368       O  0.62930799  0.96654579  0.11628519    -0.37600
O3369       O  0.59010445  0.03437512  0.19410172    -0.38500
O3370       O  0.57862972  0.00645674  0.18461566    -0.34700
O3371       O  0.69896659  0.00265767  0.18436397    -0.36100
O3372       O  0.68667621  0.97476270  0.17657120    -0.40400
C3373       C  0.55682669  0.89787799  0.37460093    -0.14100
C3374       C  0.57561667  0.89001463  0.38718358     0.16300
C3375       C  0.59475628  0.90095725  0.39160302     0.02600
C3376       C  0.59449560  0.91967936  0.38454838    -0.12600
C3377       C  0.57558088  0.92788730  0.37243836    -0.03700
C3378       C  0.55667620  0.91661756  0.36694522     0.01800
C3379       C  0.57538188  0.87012586  0.39416467     0.08700
N3380       N  0.61497108  0.89314400  0.40212660     0.65000
H3381       H  0.60953675  0.92772854  0.38813720     0.17900
N3382       N  0.53714795  0.92385277  0.35393064     0.75500
H3383       H  0.54223803  0.88936305  0.37054044     0.09400
C3384       C  0.57090763  0.86400093  0.42071188     0.03100
C3385       C  0.57112570  0.84501506  0.42655358    -0.05600
C3386       C  0.57609509  0.83182683  0.40638844    -0.24000
C3387       C  0.57996741  0.83809956  0.37950821     0.12400
C3388       C  0.57947018  0.85711134  0.37372205    -0.13100
N3389       N  0.56635919  0.87687747  0.44205626     0.64100
H3390       H  0.56823831  0.84066245  0.44731243     0.11900
N3391       N  0.58438149  0.82552931  0.35773217     0.60700
H3392       H  0.58256622  0.86177543  0.35314308     0.08100
O3393       O  0.52000926  0.92730499  0.36802613    -0.40800
O3394       O  0.53510328  0.92209488  0.32855467    -0.39900
O3395       O  0.63036573  0.88879794  0.38577315    -0.39900
O3396       O  0.61980966  0.89567486  0.42678681    -0.37600
O3397       O  0.56818639  0.81981925  0.34352260    -0.38500
O3398       O  0.60385576  0.82501816  0.34783745    -0.34700
O3399       O  0.54632656  0.87966458  0.44910057    -0.36100
O3400       O  0.58197030  0.88149181  0.45796672    -0.40400
C3401       C  0.52283462  0.01001997  0.48603588    -0.14100
C3402       C  0.53460564  0.00181438  0.50743497     0.16300
C3403       C  0.55596782  0.99417629  0.50233124     0.02600
C3404       C  0.56547097  0.99556820  0.47634681    -0.12600
C3405       C  0.55399950  0.00437408  0.45499394    -0.03700
C3406       C  0.53211324  0.01127008  0.46004973     0.01800
C3407       C  0.52360183  0.00075006  0.53441665     0.08700
N3408       N  0.56857382  0.98550024  0.52345591     0.65000
H3409       H  0.58213112  0.99003549  0.47307484     0.17900
N3410       N  0.51860719  0.01904085  0.43896211     0.75500
H3411       H  0.50605207  0.01527785  0.48943524     0.09400
C3412       C  0.51670337  0.01691598  0.54829764     0.03100
C3413       C  0.50472730  0.01547026  0.57260315    -0.05600
C3414       C  0.49938967  0.99811751  0.58365066    -0.24000
C3415       C  0.50571712  0.98191324  0.56935923     0.12400
C3416       C  0.51778199  0.98337467  0.54502629    -0.13100
N3417       N  0.52223485  0.03495363  0.53838187     0.64100
H3418       H  0.50021343  0.02805200  0.58335557     0.11900
N3419       N  0.49905662  0.96392850  0.57844312     0.60700
H3420       H  0.52209210  0.97087488  0.53396473     0.08100
O3421       O  0.50549358  0.00857638  0.42592986    -0.40800
O3422       O  0.51531018  0.03632828  0.43859988    -0.39900
O3423       O  0.56957559  0.96802661  0.52431053    -0.39900
O3424       O  0.58299118  0.99490064  0.53618628    -0.37600
O3425       O  0.48091483  0.95714707  0.56978092    -0.38500
O3426       O  0.51353008  0.95327954  0.58872043    -0.34700
O3427       O  0.50693873  0.04504345  0.52864095    -0.36100
O3428       O  0.54042151  0.04233871  0.54571275    -0.40400
C3429       C  0.55687438  0.02310419  0.82042771    -0.14100
C3430       C  0.56508577  0.00593540  0.82908065     0.16300
C3431       C  0.55284459  0.98968505  0.82390352     0.02600
C3432       C  0.53348033  0.99064041  0.80818319    -0.12600
C3433       C  0.52595439  0.00768129  0.79783748    -0.03700
C3434       C  0.53725181  0.02415562  0.80513495     0.01800
C3435       C  0.58563746  0.00562406  0.84518828     0.08700
N3436       N  0.55974362  0.97217410  0.83456464     0.65000
H3437       H  0.52483566  0.97786083  0.80321644     0.17900
N3438       N  0.52873929  0.04201430  0.79791609     0.75500
H3439       H  0.56572900  0.03573934  0.82568028     0.09400
C3440       C  0.60667932  0.00243420  0.83322547     0.03100
C3441       C  0.62599672  0.00364742  0.84908843    -0.05600
C3442       C  0.62462814  0.00843942  0.87660158    -0.24000
C3443       C  0.60339964  0.01171267  0.88844605     0.12400
C3444       C  0.58414976  0.01020345  0.87262706    -0.13100
N3445       N  0.60878713  0.99869851  0.80487130     0.64100
H3446       H  0.64217027  0.00130934  0.83969205     0.11900
N3447       N  0.60090313  0.01617231  0.91653909     0.60700
H3448       H  0.56792377  0.01285336  0.88172610     0.08100
O3449       O  0.53868044  0.05136985  0.77995784    -0.40800
O3450       O  0.51541369  0.05010443  0.81389680    -0.39900
O3451       O  0.55032207  0.96605306  0.85565596    -0.39900
O3452       O  0.57029269  0.96107166  0.81945029    -0.37600
O3453       O  0.59732348  0.03282986  0.92311790    -0.38500
O3454       O  0.59545663  0.00346892  0.93285914    -0.34700
O3455       O  0.61470119  0.01162588  0.78918001    -0.36100
O3456       O  0.61068346  0.98211654  0.79701134    -0.40400
C3457       C  0.35895560  0.01581665  0.58237420    -0.14100
C3458       C  0.33932769  0.00871116  0.59391772     0.16300
C3459       C  0.34037945  0.99923505  0.61877239     0.02600
C3460       C  0.36089071  0.99691029  0.63168052    -0.12600
C3461       C  0.38081629  0.00337899  0.61992605    -0.03700
C3462       C  0.37974906  0.01307942  0.59495492     0.01800
C3463       C  0.31916022  0.00745390  0.57701335     0.08700
N3464       N  0.32096348  0.99085864  0.63039925     0.65000
H3465       H  0.36113537  0.98970474  0.65098188     0.17900
N3466       N  0.39951589  0.01887248  0.58096499     0.75500
H3467       H  0.35829310  0.02243423  0.56262982     0.09400
C3468       C  0.30389642  0.02214195  0.57414076     0.03100
C3469       C  0.28544267  0.02006849  0.55690975    -0.05600
C3470       C  0.28206825  0.00359494  0.54201243    -0.24000
C3471       C  0.29776549  0.98895266  0.54502100     0.12400
C3472       C  0.31593187  0.99104924  0.56251026    -0.13100
N3473       N  0.30693280  0.03925002  0.58831137     0.64100
H3474       H  0.27392938  0.03160780  0.55494826     0.11900
N3475       N  0.29593235  0.97190119  0.53040793     0.60700
H3476       H  0.32790203  0.97980624  0.56449556     0.08100
O3477       O  0.40919986  0.00753703  0.56535656    -0.40800
O3478       O  0.40333293  0.03598258  0.57822741    -0.39900
O3479       O  0.31771532  0.97373686  0.62680148    -0.39900
O3480       O  0.31116887  0.99894908  0.64975816    -0.37600
O3481       O  0.30724657  0.96984438  0.50898855    -0.38500
O3482       O  0.28890599  0.95769548  0.54268386    -0.34700
O3483       O  0.31400673  0.05320674  0.57547052    -0.36100
O3484       O  0.29717525  0.04161612  0.61075830    -0.40400
C3485       C  0.55323070  0.25701947  0.78293862    -0.14100
C3486       C  0.52971534  0.25775026  0.78263424     0.16300
C3487       C  0.51811170  0.25725404  0.80759286     0.02600
C3488       C  0.53003207  0.25574256  0.83197019    -0.12600
C3489       C  0.55351838  0.25485693  0.83228617    -0.03700
C3490       C  0.56517563  0.25567474  0.80742062     0.01800
C3491       C  0.51770129  0.25752891  0.75611452     0.08700
N3492       N  0.49423825  0.25847741  0.80868444     0.65000
H3493       H  0.52079357  0.25527500  0.85090100     0.17900
N3494       N  0.58896731  0.25390701  0.80641465     0.75500
H3495       H  0.56239720  0.25678261  0.76397664     0.09400
C3496       C  0.52183117  0.27094403  0.73593503     0.03100
C3497       C  0.51095644  0.26973859  0.71085278    -0.05600
C3498       C  0.49607920  0.25513171  0.70468704    -0.24000
C3499       C  0.49245629  0.24138611  0.72473634     0.12400
C3500       C  0.50309591  0.24281224  0.75012304    -0.13100
N3501       N  0.53694292  0.28601052  0.74047535     0.64100
H3502       H  0.51435381  0.28049766  0.69607564     0.11900
N3503       N  0.47898949  0.22542046  0.71946620     0.60700
H3504       H  0.50048154  0.23195628  0.76498184     0.08100
O3505       O  0.60064074  0.26817691  0.80205868    -0.40800
O3506       O  0.59743221  0.23811107  0.80230580    -0.39900
O3507       O  0.48300234  0.24393327  0.81285170    -0.39900
O3508       O  0.48530579  0.27403322  0.81324673    -0.37600
O3509       O  0.48846772  0.21051232  0.71249247    -0.38500
O3510       O  0.45936846  0.22479662  0.72891140    -0.34700
O3511       O  0.55621780  0.28536589  0.73000696    -0.36100
O3512       O  0.52914317  0.30150940  0.74770475    -0.40400
C3513       C  0.59315043  0.23858238  0.44411666    -0.14100
C3514       C  0.58353885  0.25610424  0.44750414     0.16300
C3515       C  0.59527483  0.27203611  0.43925867     0.02600
C3516       C  0.61622208  0.27012555  0.42696717    -0.12600
C3517       C  0.62576933  0.25251658  0.42315314    -0.03700
C3518       C  0.61419359  0.23664258  0.43232888     0.01800
C3519       C  0.56352890  0.25718791  0.46449977     0.08700
N3520       N  0.58640796  0.29018890  0.44366224     0.65000
H3521       H  0.62478079  0.28244011  0.41980153     0.17900
N3522       N  0.62399963  0.21857505  0.43114218     0.75500
H3523       H  0.58458825  0.22636880  0.45168195     0.09400
C3524       C  0.54171658  0.25684428  0.45361437     0.03100
C3525       C  0.52342910  0.25479278  0.47103939    -0.05600
C3526       C  0.52675709  0.25262299  0.49901339    -0.24000
C3527       C  0.54861642  0.25326515  0.50981142     0.12400
C3528       C  0.56675061  0.25560245  0.49248451    -0.13100
N3529       N  0.53787848  0.25803975  0.42505520     0.64100
H3530       H  0.50662555  0.25451641  0.46267671     0.11900
N3531       N  0.55267429  0.25237213  0.53836736     0.60700
H3532       H  0.58356512  0.25573322  0.50085041     0.08100
O3533       O  0.63458247  0.21260883  0.45153876    -0.40800
O3534       O  0.61709596  0.20717336  0.41358390    -0.39900
O3535       O  0.59370749  0.29969077  0.46329067    -0.39900
O3536       O  0.57631512  0.29826054  0.42450082    -0.37600
O3537       O  0.55477124  0.26730985  0.55148481    -0.38500
O3538       O  0.56026738  0.23755526  0.54842638    -0.34700
O3539       O  0.53480775  0.24331047  0.41170902    -0.36100
O3540       O  0.53147031  0.27326933  0.41511159    -0.40400
C3541       C  0.47300404  0.14769104  0.65594774    -0.14100
C3542       C  0.48907760  0.13783065  0.64109804     0.16300
C3543       C  0.50068152  0.14705567  0.62020413     0.02600
C3544       C  0.49609340  0.16575207  0.61459022    -0.12600
C3545       C  0.47958772  0.17571473  0.62898069    -0.03700
C3546       C  0.46798883  0.16629399  0.65003887     0.01800
C3547       C  0.49125798  0.11748791  0.64573858     0.08700
N3548       N  0.51713349  0.13764783  0.60430290     0.65000
H3549       H  0.50537704  0.17235425  0.59837166     0.17900
N3550       N  0.45032863  0.17489790  0.66495031     0.75500
H3551       H  0.46351513  0.14062586  0.67158842     0.09400
C3552       C  0.49872428  0.11019146  0.67068279     0.03100
C3553       C  0.49691778  0.09112940  0.67594131    -0.05600
C3554       C  0.48751177  0.07880866  0.65686124    -0.24000
C3555       C  0.48098944  0.08615736  0.63125726     0.12400
C3556       C  0.48291746  0.10525931  0.62609111    -0.13100
N3557       N  0.50808181  0.12196263  0.69106743     0.64100
H3558       H  0.50224738  0.08612318  0.69564994     0.11900
N3559       N  0.47196052  0.07472418  0.61025637     0.60700
H3560       H  0.47698514  0.11069190  0.60686628     0.08100
O3561       O  0.45395316  0.17978994  0.68915912    -0.40800
O3562       O  0.43038692  0.17236605  0.65726588    -0.39900
O3563       O  0.51234263  0.13291054  0.58032251    -0.39900
O3564       O  0.53743951  0.13865695  0.61127178    -0.37600
O3565       O  0.45134981  0.07602561  0.60488457    -0.38500
O3566       O  0.48502073  0.06866270  0.59217814    -0.34700
O3567       O  0.49686324  0.12539521  0.71218027    -0.36100
O3568       O  0.52897053  0.12461690  0.69132679    -0.40400
C3569       C  0.24606455  0.99327842  0.28570824    -0.14100
C3570       C  0.26787712  0.00020354  0.28249022     0.16300
C3571       C  0.27879187  0.00815078  0.30502859     0.02600
C3572       C  0.26809965  0.00874666  0.33018297    -0.12600
C3573       C  0.24628863  0.00181766  0.33370373    -0.03700
C3574       C  0.23512541  0.99411130  0.31093844     0.01800
C3575       C  0.27842493  0.00020318  0.25519399     0.08700
N3576       N  0.30089557  0.01557886  0.30289116     0.65000
H3577       H  0.27719148  0.01462660  0.34718957     0.17900
N3578       N  0.21237863  0.98803949  0.31251272     0.75500
H3579       H  0.23720148  0.98770479  0.26831315     0.09400
C3580       C  0.28328703  0.98359305  0.24126636     0.03100
C3581       C  0.29318579  0.98425651  0.21550830    -0.05600
C3582       C  0.29830819  0.00125645  0.20300686    -0.24000
C3583       C  0.29286493  0.01788433  0.21668471     0.12400
C3584       C  0.28316647  0.01720487  0.24260012    -0.13100
N3585       N  0.27876698  0.96592418  0.25319536     0.64100
H3586       H  0.29710023  0.97132877  0.20530814     0.11900
N3587       N  0.29560473  0.03551194  0.20390093     0.60700
H3588       H  0.27881750  0.03006327  0.25272015     0.08100
O3589       O  0.20823083  0.97087881  0.31254901    -0.40800
O3590       O  0.19693788  0.99927046  0.30647889    -0.39900
O3591       O  0.30340859  0.03295563  0.30242565    -0.39900
O3592       O  0.31734159  0.00546532  0.30920821    -0.37600
O3593       O  0.27944158  0.04229874  0.19068800    -0.38500
O3594       O  0.31128544  0.04602420  0.21154127    -0.34700
O3595       O  0.26081735  0.95762405  0.24721840    -0.36100
O3596       O  0.29468685  0.95683580  0.26355490    -0.40400
C3597       C  0.45446893  0.99237156  0.19384959    -0.14100
C3598       C  0.45380467  0.00725161  0.21200183     0.16300
C3599       C  0.43519595  0.01915652  0.21204195     0.02600
C3600       C  0.41735564  0.01581752  0.19425794    -0.12600
C3601       C  0.41786134  0.00097079  0.17561291    -0.03700
C3602       C  0.43696301  0.98920010  0.17553726     0.01800
C3603       C  0.47336034  0.01031871  0.22970429     0.08700
N3604       N  0.43448604  0.03508411  0.22926188     0.65000
H3605       H  0.40323229  0.02523982  0.19479652     0.17900
N3606       N  0.43956903  0.97445802  0.15641318     0.75500
H3607       H  0.46902448  0.98337021  0.19344683     0.09400
C3608       C  0.47536447  0.00098451  0.25457228     0.03100
C3609       C  0.49559001  0.00147571  0.26870870    -0.05600
C3610       C  0.51433935  0.01101718  0.25845756    -0.24000
C3611       C  0.51191062  0.02109113  0.23395538     0.12400
C3612       C  0.49152615  0.02054038  0.21979303    -0.13100
N3613       N  0.45729941  0.99027856  0.26526180     0.64100
H3614       H  0.49662281  0.99393808  0.28769585     0.11900
N3615       N  0.53012334  0.03103479  0.22219500     0.60700
H3616       H  0.49014696  0.02753352  0.20038575     0.08100
O3617       O  0.43681183  0.95796315  0.16428011    -0.40800
O3618       O  0.45071598  0.97741661  0.13509500    -0.39900
O3619       O  0.43834153  0.05085416  0.21919866    -0.39900
O3620       O  0.42468750  0.03400171  0.25188359    -0.37600
O3621       O  0.54144784  0.02326984  0.20385118    -0.38500
O3622       O  0.53032249  0.04849783  0.22382427    -0.34700
O3623       O  0.45761347  0.97288224  0.26245587    -0.36100
O3624       O  0.44482402  0.99737484  0.28313175    -0.40400
C3625       C  0.19764127  0.99177037  0.95365565    -0.14100
C3626       C  0.21587647  0.00184136  0.94355197     0.16300
C3627       C  0.21371200  0.01179675  0.91923692     0.02600
C3628       C  0.19308230  0.01230295  0.90616169    -0.12600
C3629       C  0.17425474  0.00317332  0.91697895    -0.03700
C3630       C  0.17684100  0.99234835  0.94066554     0.01800
C3631       C  0.23645464  0.00278906  0.95974266     0.08700
N3632       N  0.23189924  0.02227987  0.90829347     0.65000
H3633       H  0.19181642  0.02019399  0.88750502     0.17900
N3634       N  0.15851855  0.98264182  0.95266857     0.75500
H3635       H  0.19941860  0.98385413  0.97223830     0.09400
C3636       C  0.23602751  0.01094428  0.98563003     0.03100
C3637       C  0.25534691  0.01126456  0.00120288    -0.05600
C3638       C  0.27543272  0.00357407  0.99159267    -0.24000
C3639       C  0.27595958  0.99543486  0.96551244     0.12400
C3640       C  0.25642342  0.99517577  0.94972718    -0.13100
N3641       N  0.21609717  0.01909961  0.99640098     0.64100
H3642       H  0.25438193  0.01732286  0.02131966     0.11900
N3643       N  0.29614863  0.98799053  0.95441177     0.60700
H3644       H  0.25676700  0.98890133  0.92972917     0.08100
O3645       O  0.15735119  0.96528250  0.94970989    -0.40800
O3646       O  0.14825657  0.99009932  0.97222030    -0.39900
O3647       O  0.24115485  0.01684641  0.88667928    -0.39900
O3648       O  0.23459016  0.03885077  0.91587963    -0.37600
O3649       O  0.29874620  0.97062950  0.95356933    -0.38500
O3650       O  0.30813280  0.99814769  0.93947007    -0.34700
O3651       O  0.20517198  0.01045549  0.01429299    -0.36100
O3652       O  0.21296840  0.03629586  0.99354627    -0.40400
C3653       C  0.40389479  0.01505315  0.92553448    -0.14100
C3654       C  0.39180523  0.00466020  0.90637529     0.16300
C3655       C  0.37346321  0.99398212  0.91551826     0.02600
C3656       C  0.36780588  0.99383478  0.94320090    -0.12600
C3657       C  0.38023242  0.00387433  0.96261874    -0.03700
C3658       C  0.39849371  0.01470192  0.95326872     0.01800
C3659       C  0.40050382  0.00375030  0.87792698     0.08700
N3660       N  0.36129916  0.98212825  0.89753619     0.65000
H3661       H  0.35376749  0.98535876  0.94952445     0.17900
N3662       N  0.41251503  0.02478549  0.97157553     0.75500
H3663       H  0.41820617  0.02314129  0.91897493     0.09400
C3664       C  0.38826890  0.01013591  0.85519123     0.03100
C3665       C  0.39793620  0.00959912  0.82923871    -0.05600
C3666       C  0.41992956  0.00322536  0.82511560    -0.24000
C3667       C  0.43241839  0.99736903  0.84799109     0.12400
C3668       C  0.42255761  0.99748639  0.87386650    -0.13100
N3669       N  0.36665047  0.01839449  0.85801439     0.64100
H3670       H  0.38810553  0.01444430  0.81214345     0.11900
N3671       N  0.45551707  0.99237412  0.84574448     0.60700
H3672       H  0.43244979  0.99301954  0.89113634     0.08100
O3673       O  0.41039317  0.04216337  0.97321277    -0.40800
O3674       O  0.43030181  0.01731549  0.98009072    -0.39900
O3675       O  0.36707303  0.96533392  0.89577476    -0.39900
O3676       O  0.34155833  0.98654664  0.89104688    -0.37600
O3677       O  0.47026138  0.00474380  0.84884859    -0.38500
O3678       O  0.46106050  0.97554631  0.84783490    -0.34700
O3679       O  0.36549080  0.03573264  0.86124419    -0.36100
O3680       O  0.34992080  0.01002150  0.84825363    -0.40400
C3681       C  0.45085301  0.23683248  0.08205385    -0.14100
C3682       C  0.47064092  0.24275066  0.09462874     0.16300
C3683       C  0.47009202  0.24960240  0.12127557     0.02600
C3684       C  0.44960251  0.25137350  0.13446575    -0.12600
C3685       C  0.42949988  0.24640510  0.12149602    -0.03700
C3686       C  0.43026906  0.23851416  0.09526054     0.01800
C3687       C  0.49041503  0.24537391  0.07761698     0.08700
N3688       N  0.48998660  0.25577069  0.13465924     0.65000
H3689       H  0.44942211  0.25701770  0.15487194     0.17900
N3690       N  0.41038886  0.23336863  0.08095043     0.75500
H3691       H  0.45127319  0.23186207  0.06127520     0.09400
C3692       C  0.50827187  0.23275316  0.07735873     0.03100
C3693       C  0.52570406  0.23528948  0.05899685    -0.05600
C3694       C  0.52560901  0.25021005  0.04053767    -0.24000
C3695       C  0.50780740  0.26318836  0.04156570     0.12400
C3696       C  0.49046898  0.26059048  0.06005794    -0.13100
N3697       N  0.50862904  0.21694058  0.09479182     0.64100
H3698       H  0.53912694  0.22517031  0.05893429     0.11900
N3699       N  0.50667134  0.27887726  0.02388946     0.60700
H3700       H  0.47664506  0.27035546  0.06037647     0.08100
O3701       O  0.40581741  0.21638098  0.07825106    -0.40800
O3702       O  0.40141862  0.24494240  0.06509857    -0.39900
O3703       O  0.49359847  0.27294742  0.13689663    -0.39900
O3704       O  0.50027849  0.24468835  0.15006493    -0.37600
O3705       O  0.51256398  0.29455935  0.03276697    -0.38500
O3706       O  0.49456056  0.27801987  0.00291229    -0.34700
O3707       O  0.50229991  0.20149261  0.08549399    -0.36100
O3708       O  0.52101215  0.21724125  0.11555759    -0.40400
C3709       C  0.38763861  0.27037050  0.36703760    -0.14100
C3710       C  0.39466027  0.25347321  0.37835541     0.16300
C3711       C  0.39380669  0.23736339  0.36192753     0.02600
C3712       C  0.38679033  0.23862770  0.33483136    -0.12600
C3713       C  0.38059467  0.25567392  0.32319626    -0.03700
C3714       C  0.38104890  0.27170883  0.33978308     0.01800
C3715       C  0.40214094  0.25303302  0.40735660     0.08700
N3716       N  0.40055506  0.21962672  0.37198324     0.65000
H3717       H  0.38632629  0.22605701  0.32276088     0.17900
N3718       N  0.37613314  0.28967481  0.32913016     0.75500
H3719       H  0.38727430  0.28276476  0.37943639     0.09400
C3720       C  0.41792577  0.26584380  0.41776600     0.03100
C3721       C  0.42380813  0.26546459  0.44527384    -0.05600
C3722       C  0.41445824  0.25251273  0.46333874    -0.24000
C3723       C  0.39840417  0.23981344  0.45293263     0.12400
C3724       C  0.39239490  0.24032042  0.42537139    -0.13100
N3725       N  0.42857440  0.27922839  0.40071915     0.64100
H3726       H  0.43605002  0.27544859  0.45237306     0.11900
N3727       N  0.38785617  0.22628468  0.46980028     0.60700
H3728       H  0.37961111  0.23087027  0.41816842     0.08100
O3729       O  0.39217799  0.30020199  0.32277712    -0.40800
O3730       O  0.35708072  0.29666890  0.33339540    -0.39900
O3731       O  0.38568251  0.20779453  0.37758922    -0.39900
O3732       O  0.42025058  0.21411966  0.36737516    -0.37600
O3733       O  0.39494182  0.20979558  0.46930503    -0.38500
O3734       O  0.36844908  0.22947891  0.47879889    -0.34700
O3735       O  0.42277700  0.29602081  0.40257407    -0.36100
O3736       O  0.44737809  0.27537705  0.39049718    -0.40400
C3737       C  0.30109206  0.11103203  0.11614346    -0.14100
C3738       C  0.31335141  0.11773585  0.13834276     0.16300
C3739       C  0.32468072  0.10497360  0.15508560     0.02600
C3740       C  0.32471944  0.08608252  0.14857538    -0.12600
C3741       C  0.31358158  0.07926429  0.12542523    -0.03700
C3742       C  0.30080030  0.09201462  0.10973919     0.01800
C3743       C  0.31376021  0.13796971  0.14430606     0.08700
N3744       N  0.33728534  0.11106347  0.17807810     0.65000
H3745       H  0.33434401  0.07682775  0.16138546     0.17900
N3746       N  0.28739339  0.08610742  0.08729977     0.75500
H3747       H  0.29161545  0.12064203  0.10370772     0.09400
C3748       C  0.32411304  0.15075382  0.12670475     0.03100
C3749       C  0.32548840  0.16952409  0.13396885    -0.05600
C3750       C  0.31697901  0.17607089  0.15888051    -0.24000
C3751       C  0.30576949  0.16322946  0.17596240     0.12400
C3752       C  0.30422691  0.14448573  0.16845288    -0.13100
N3753       N  0.33469188  0.14474937  0.10222650     0.64100
H3754       H  0.33405699  0.17889601  0.12028463     0.11900
N3755       N  0.29709866  0.16850391  0.20182772     0.60700
H3756       H  0.29600327  0.13480960  0.18200910     0.08100
O3757       O  0.29351121  0.09020445  0.06353908    -0.40800
O3758       O  0.26717879  0.08184508  0.09143826    -0.39900
O3759       O  0.32985684  0.10792745  0.20160505    -0.39900
O3760       O  0.35771572  0.11503761  0.17509804    -0.37600
O3761       O  0.27656563  0.17241938  0.20386310    -0.38500
O3762       O  0.30781573  0.16392360  0.22287553    -0.34700
O3763       O  0.32561486  0.14842276  0.07971795    -0.36100
O3764       O  0.35515251  0.14036701  0.10281167    -0.40400
C3765       C  0.15047738  0.11358494  0.80613752    -0.14100
C3766       C  0.13704362  0.12383073  0.78834637     0.16300
C3767       C  0.11960584  0.11468572  0.77434952     0.02600
C3768       C  0.11533547  0.09579880  0.77945870    -0.12600
C3769       C  0.12842612  0.08559975  0.79803256    -0.03700
C3770       C  0.14666949  0.09475776  0.81082242     0.01800
C3771       C  0.14255019  0.14383886  0.78509452     0.08700
N3772       N  0.10675063  0.12400676  0.75405853     0.65000
H3773       H  0.10158885  0.08915499  0.76887049     0.17900
N3774       N  0.16184670  0.08527780  0.82846449     0.75500
H3775       H  0.16423782  0.12032918  0.81661581     0.09400
C3776       C  0.12919638  0.15787298  0.79677681     0.03100
C3777       C  0.13801274  0.17571690  0.80049756    -0.05600
C3778       C  0.16017141  0.18003126  0.79316523    -0.24000
C3779       C  0.17303287  0.16625971  0.77986613     0.12400
C3780       C  0.16407376  0.14847638  0.77585836    -0.13100
N3781       N  0.10736076  0.15398752  0.80711551     0.64100
H3782       H  0.12767336  0.18606553  0.81039211     0.11900
N3783       N  0.19587261  0.16937164  0.77257825     0.60700
H3784       H  0.17467740  0.13776256  0.76728000     0.08100
O3785       O  0.18012169  0.07935118  0.81895475    -0.40800
O3786       O  0.15998016  0.08745409  0.85378181    -0.39900
O3787       O  0.11310718  0.12308484  0.72967075    -0.39900
O3788       O  0.08660320  0.12805365  0.75899965    -0.37600
O3789       O  0.21110129  0.16505716  0.78921029    -0.38500
O3790       O  0.20079809  0.17132613  0.74784031    -0.34700
O3791       O  0.10510394  0.15091947  0.83218122    -0.36100
O3792       O  0.09053810  0.15921547  0.79361400    -0.40400
C3793       C  0.29668887  0.23913439  0.03532189    -0.14100
C3794       C  0.28595349  0.25555203  0.02696743     0.16300
C3795       C  0.28734689  0.27127744  0.04386533     0.02600
C3796       C  0.29882147  0.27029541  0.06854502    -0.12600
C3797       C  0.30932826  0.25386471  0.07738529    -0.03700
C3798       C  0.30845771  0.23816856  0.06008982     0.01800
C3799       C  0.27288382  0.25593359  0.00109334     0.08700
N3800       N  0.27771395  0.28861418  0.03603525     0.65000
H3801       H  0.29947151  0.28273434  0.08088415     0.17900
N3802       N  0.31888490  0.22104175  0.06736959     0.75500
H3803       H  0.29556022  0.22681803  0.02278863     0.09400
C3804       C  0.28261381  0.25068975  0.97618675     0.03100
C3805       C  0.26979212  0.25081031  0.95244924    -0.05600
C3806       C  0.24716779  0.25628135  0.95243722    -0.24000
C3807       C  0.23738818  0.26175106  0.97731101     0.12400
C3808       C  0.25020950  0.26133319  0.00131553    -0.13100
N3809       N  0.30579026  0.24593188  0.97427044     0.64100
H3810       H  0.27790361  0.24688230  0.93362073     0.11900
N3811       N  0.21442587  0.26721219  0.97887367     0.60700
H3812       H  0.24228340  0.26503546  0.02033473     0.08100
O3813       O  0.30722910  0.20848463  0.07824331    -0.40800
O3814       O  0.33727526  0.21674752  0.05642555    -0.39900
O3815       O  0.26022699  0.29419463  0.04788079    -0.39900
O3816       O  0.28968149  0.30017625  0.02344608    -0.37600
O3817       O  0.20973824  0.28422558  0.98087961    -0.38500
O3818       O  0.19991462  0.25534545  0.98556754    -0.34700
O3819       O  0.31118172  0.22914632  0.97106950    -0.36100
O3820       O  0.31967778  0.25839979  0.96800084    -0.40400
C3821       C  0.10180664  0.27302545  0.95263282    -0.14100
C3822       C  0.09411507  0.25647731  0.96425148     0.16300
C3823       C  0.10587913  0.23985410  0.95897532     0.02600
C3824       C  0.12440097  0.24000946  0.94160960    -0.12600
C3825       C  0.13162671  0.25646484  0.92923930    -0.03700
C3826       C  0.12036570  0.27320899  0.93532136     0.01800
C3827       C  0.07232159  0.25668304  0.97874835     0.08700
N3828       N  0.09921074  0.22264831  0.97085040     0.65000
H3829       H  0.13300591  0.22707110  0.93745535     0.17900
N3830       N  0.12623333  0.29027291  0.92244999     0.75500
H3831       H  0.09255607  0.28578219  0.95573163     0.09400
C3832       C  0.06816095  0.26889322  0.00061578     0.03100
C3833       C  0.04673905  0.26982604  0.01209451    -0.05600
C3834       C  0.02933334  0.25855739  0.00250890    -0.24000
C3835       C  0.03339973  0.24641697  0.98064589     0.12400
C3836       C  0.05468024  0.24576363  0.96873917    -0.13100
N3837       N  0.08576216  0.27965226  0.01241537     0.64100
H3838       H  0.04396631  0.27876254  0.02948667     0.11900
N3839       N  0.01610245  0.23473677  0.97020469     0.60700
H3840       H  0.05736786  0.23678813  0.95139245     0.08100
O3841       O  0.13469838  0.30308497  0.93658990    -0.40800
O3842       O  0.11742668  0.29424167  0.89988609    -0.39900
O3843       O  0.09061495  0.21033060  0.95589727    -0.39900
O3844       O  0.10756617  0.21797175  0.99336666    -0.37600
O3845       O  0.00483042  0.24014222  0.95001899    -0.38500
O3846       O  0.01609760  0.21774495  0.97631507    -0.34700
O3847       O  0.08675340  0.29680920  0.00752046    -0.36100
O3848       O  0.09619964  0.27324930  0.03263244    -0.40400
C3849       C  0.33383511  0.26034767  0.67639476    -0.14100
C3850       C  0.33550096  0.24897852  0.69923880     0.16300
C3851       C  0.35537959  0.23918639  0.70436788     0.02600
C3852       C  0.37358719  0.24135104  0.68698053    -0.12600
C3853       C  0.37241032  0.25325328  0.66442233    -0.03700
C3854       C  0.35199171  0.26258075  0.65890473     0.01800
C3855       C  0.31635614  0.24820471  0.71774662     0.08700
N3856       N  0.35747119  0.22713904  0.72722614     0.65000
H3857       H  0.38889863  0.23394864  0.69167172     0.17900
N3858       N  0.34916577  0.27427218  0.63573973     0.75500
H3859       H  0.31836943  0.26773889  0.67231773     0.09400
C3860       C  0.31488039  0.26059349  0.73960965     0.03100
C3861       C  0.29540514  0.26129366  0.75497859    -0.05600
C3862       C  0.27674025  0.25018182  0.74861492    -0.24000
C3863       C  0.27834177  0.23766284  0.72647943     0.12400
C3864       C  0.29818216  0.23676516  0.71138159    -0.13100
N3865       N  0.33245123  0.27344625  0.74542419     0.64100
H3866       H  0.29491464  0.27099093  0.77178182     0.11900
N3867       N  0.25986868  0.22650173  0.71798583     0.60700
H3868       H  0.29912794  0.22758575  0.69397363     0.08100
O3869       O  0.34929460  0.29163592  0.63899256    -0.40800
O3870       O  0.34045328  0.26759440  0.61452242    -0.39900
O3871       O  0.35686239  0.20983083  0.72347522    -0.39900
O3872       O  0.36595893  0.23335439  0.74886084    -0.37600
O3873       O  0.26044581  0.20928732  0.72254562    -0.38500
O3874       O  0.24726252  0.23251285  0.69939200    -0.34700
O3875       O  0.33091422  0.28979592  0.73648209    -0.36100
O3876       O  0.34561589  0.27015218  0.76488166    -0.40400
C3877       C  0.14184706  0.60943017  0.99896065    -0.14100
C3878       C  0.15627354  0.62007332  0.01508802     0.16300
C3879       C  0.17541356  0.61147445  0.02634270     0.02600
C3880       C  0.18053764  0.59302113  0.01963293    -0.12600
C3881       C  0.16685511  0.58268725  0.00199501    -0.03700
C3882       C  0.14666772  0.59097147  0.99256943     0.01800
C3883       C  0.15103657  0.64018930  0.01794999     0.08700
N3884       N  0.18955102  0.62093629  0.04518479     0.65000
H3885       H  0.19571808  0.58695631  0.02780523     0.17900
N3886       N  0.13079379  0.58110995  0.97627654     0.75500
H3887       H  0.12685108  0.61568569  0.99053335     0.09400
C3888       C  0.16490297  0.65387510  0.00630184     0.03100
C3889       C  0.15675090  0.67186022  0.00261164    -0.05600
C3890       C  0.13458795  0.67666553  0.00921512    -0.24000
C3891       C  0.12127192  0.66342864  0.02289845     0.12400
C3892       C  0.12964478  0.64543062  0.02721059    -0.13100
N3893       N  0.18630714  0.64945157  0.99509737     0.64100
H3894       H  0.16751620  0.68182480  0.99256641     0.11900
N3895       N  0.09870424  0.66737782  0.03057456     0.60700
H3896       H  0.11873313  0.63507330  0.03610461     0.08100
O3897       O  0.11413344  0.57372963  0.98773853    -0.40800
O3898       O  0.12968741  0.58462597  0.95121607    -0.39900
O3899       O  0.18546647  0.61926671  0.07018989    -0.39900
O3900       O  0.20916280  0.62515837  0.03795815    -0.37600
O3901       O  0.08295676  0.66264751  0.01492395    -0.38500
O3902       O  0.09442302  0.67072454  0.05517639    -0.34700
O3903       O  0.18733490  0.64428664  0.97064565    -0.36100
O3904       O  0.20354667  0.65636017  0.00596208    -0.40400
C3905       C  0.08415957  0.50718216  0.86896418    -0.14100
C3906       C  0.08589111  0.50243623  0.84155132     0.16300
C3907       C  0.10714538  0.49941001  0.82994737     0.02600
C3908       C  0.12633318  0.50144511  0.84594725    -0.12600
C3909       C  0.12463803  0.50677427  0.87323436    -0.03700
C3910       C  0.10324344  0.50938591  0.88487950     0.01800
C3911       C  0.06540452  0.50321656  0.82515369     0.08700
N3912       N  0.10966835  0.49519734  0.80178305     0.65000
H3913       H  0.14265199  0.49940282  0.83677910     0.17900
N3914       N  0.10045998  0.51376371  0.91296224     0.75500
H3915       H  0.06782222  0.50954900  0.87794039     0.09400
C3916       C  0.05482739  0.48719235  0.81509547     0.03100
C3917       C  0.03497546  0.48891236  0.80040939    -0.05600
C3918       C  0.02548614  0.50638762  0.79544027    -0.24000
C3919       C  0.03558348  0.52235335  0.80663088     0.12400
C3920       C  0.05540565  0.52059863  0.82137503    -0.13100
N3921       N  0.06377886  0.46909529  0.81969865     0.64100
H3922       H  0.02748430  0.47651370  0.79186549     0.11900
N3923       N  0.02593647  0.54037191  0.80351128     0.60700
H3924       H  0.06313110  0.53291253  0.82989539     0.08100
O3925       O  0.09661665  0.50079204  0.92949938    -0.40800
O3926       O  0.09552737  0.53017438  0.91957580    -0.39900
O3927       O  0.11260350  0.50832709  0.78524572    -0.39900
O3928       O  0.11553442  0.47903420  0.79500137    -0.37600
O3929       O  0.01259822  0.54624460  0.82142709    -0.38500
O3930       O  0.03534198  0.55188943  0.78798132    -0.34700
O3931       O  0.05512934  0.45916353  0.83797446    -0.36100
O3932       O  0.07450622  0.46128436  0.80083242    -0.40400
C3933       C  0.25277956  0.40126979  0.90309697    -0.14100
C3934       C  0.23621561  0.39397370  0.88588259     0.16300
C3935       C  0.21843224  0.40554709  0.87772352     0.02600
C3936       C  0.21733772  0.42383634  0.88709472    -0.12600
C3937       C  0.23351225  0.43119942  0.90495746    -0.03700
C3938       C  0.25167876  0.41964956  0.91262050     0.01800
C3939       C  0.23605528  0.37371830  0.88011940     0.08700
N3940       N  0.20040851  0.39870316  0.86145476     0.65000
H3941       H  0.20306428  0.43208881  0.88090901     0.17900
N3942       N  0.26917295  0.42616047  0.92997786     0.75500
H3943       H  0.26643230  0.39245086  0.90973798     0.09400
C3944       C  0.23970297  0.36626772  0.85400286     0.03100
C3945       C  0.23787469  0.34707108  0.84977089    -0.05600
C3946       C  0.23266800  0.33488112  0.87117028    -0.24000
C3947       C  0.23045663  0.34236063  0.89765291     0.12400
C3948       C  0.23197402  0.36156603  0.90173226    -0.13100
N3949       N  0.24597151  0.37780619  0.83170398     0.64100
H3950       H  0.24007400  0.34175994  0.82936054     0.11900
N3951       N  0.22733580  0.33077100  0.92085646     0.60700
H3952       H  0.22979070  0.36707736  0.92204576     0.08100
O3953       O  0.28731839  0.43153563  0.91948753    -0.40800
O3954       O  0.26890311  0.42174148  0.95476008    -0.39900
O3955       O  0.18269470  0.39345382  0.87310072    -0.39900
O3956       O  0.19944706  0.40340472  0.83681657    -0.37600
O3957       O  0.24438521  0.32524683  0.93368681    -0.38500
O3958       O  0.20865841  0.33098041  0.93281403    -0.34700
O3959       O  0.26652648  0.37996728  0.82667331    -0.36100
O3960       O  0.23192790  0.38077145  0.81305085    -0.40400
C3961       C  0.14683722  0.10872656  0.49503431    -0.14100
C3962       C  0.16208842  0.11993716  0.50910626     0.16300
C3963       C  0.18170850  0.11174760  0.51976168     0.02600
C3964       C  0.18642432  0.09300742  0.51437071    -0.12600
C3965       C  0.17180301  0.08206444  0.49871931    -0.03700
C3966       C  0.15127520  0.09000895  0.49002584     0.01800
C3967       C  0.15690203  0.14009366  0.51089162     0.08700
N3968       N  0.19668858  0.12194756  0.53674462     0.65000
H3969       H  0.20198597  0.08718217  0.52184302     0.17900
N3970       N  0.13457334  0.07938421  0.47617826     0.75500
H3971       H  0.13142499  0.11468524  0.48728153     0.09400
C3972       C  0.16929685  0.15329934  0.49608781     0.03100
C3973       C  0.16050513  0.17105095  0.49185538    -0.05600
C3974       C  0.13909374  0.17607347  0.50130764    -0.24000
C3975       C  0.12746242  0.16330218  0.51795864     0.12400
C3976       C  0.13647549  0.14556842  0.52257402    -0.13100
N3977       N  0.18965070  0.14847468  0.48258944     0.64100
H3978       H  0.17006774  0.18059495  0.47944133     0.11900
N3979       N  0.10583879  0.16741581  0.52875559     0.60700
H3980       H  0.12669863  0.13553905  0.53388451     0.08100
O3981       O  0.11878057  0.07239733  0.48977065    -0.40800
O3982       O  0.13204881  0.08157147  0.45094103    -0.39900
O3983       O  0.19398905  0.12115975  0.56212066    -0.39900
O3984       O  0.21569927  0.12631838  0.52761163    -0.37600
O3985       O  0.08876711  0.16043966  0.51758887    -0.38500
O3986       O  0.10439692  0.17317764  0.55288458    -0.34700
O3987       O  0.18869517  0.14300066  0.45827551    -0.36100
O3988       O  0.20781011  0.15515605  0.49133836    -0.40400
C3989       C  0.99509053  0.24151827  0.25241444    -0.14100
C3990       C  0.01757744  0.24729582  0.25329996     0.16300
C3991       C  0.02802190  0.25282990  0.22903130     0.02600
C3992       C  0.01566052  0.25369768  0.20497663    -0.12600
C3993       C  0.99285464  0.24879522  0.20403056    -0.03700
C3994       C  0.98271135  0.24204096  0.22804181     0.01800
C3995       C  0.03018080  0.24656363  0.27934810     0.08700
N3996       N  0.05146004  0.25675821  0.22803493     0.65000
H3997       H  0.02420632  0.25813084  0.18668971     0.17900
N3998       N  0.95987314  0.23613174  0.22838902     0.75500
H3999       H  0.98705733  0.23669001  0.27082136     0.09400
C4000       C  0.03620695  0.26276509  0.29373474     0.03100
C4001       C  0.04815760  0.26138476  0.31818988    -0.05600
C4002       C  0.05404629  0.24407638  0.32911415    -0.24000
C4003       C  0.04796964  0.22784356  0.31462932     0.12400
C4004       C  0.03617780  0.22925642  0.29003299    -0.13100
N4005       N  0.02933839  0.28070292  0.28465829     0.64100
H4006       H  0.05215429  0.27397795  0.32921120     0.11900
N4007       N  0.05441675  0.20983846  0.32387641     0.60700
H4008       H  0.03179072  0.21672466  0.27907651     0.08100
O4009       O  0.94501211  0.24720714  0.23669119    -0.40800
O4010       O  0.95557920  0.21900136  0.22761413    -0.39900
O4011       O  0.06467768  0.24408357  0.22057705    -0.39900
O4012       O  0.05778307  0.27340664  0.22631922    -0.37600
O4013       O  0.07192486  0.20253899  0.31429573    -0.38500
O4014       O  0.03996484  0.19959736  0.33501500    -0.34700
O4015       O  0.01201468  0.28788121  0.29489827    -0.36100
O4016       O  0.04354566  0.29112969  0.27345571    -0.40400
C4017       C  0.98001593  0.25074018  0.54102358    -0.14100
C4018       C  0.98439453  0.24901491  0.56878689     0.16300
C4019       C  0.00636837  0.24564816  0.57785436     0.02600
C4020       C  0.02376034  0.24459722  0.55900876    -0.12600
C4021       C  0.01961713  0.24724356  0.53126363    -0.03700
C4022       C  0.99741590  0.24996141  0.52218279     0.01800
C4023       C  0.96555754  0.25072192  0.58767712     0.08700
N4024       N  0.01144739  0.24402996  0.60608923     0.65000
H4025       H  0.04071351  0.24249791  0.56622414     0.17900
N4026       N  0.99217621  0.25171140  0.49398874     0.75500
H4027       H  0.96300466  0.25295399  0.53400031     0.09400
C4028       C  0.95768521  0.26824238  0.59568883     0.03100
C4029       C  0.93850108  0.26956585  0.61161861    -0.05600
C4030       C  0.92664934  0.25364566  0.61952757    -0.24000
C4031       C  0.93455090  0.23601233  0.61124335     0.12400
C4032       C  0.95396845  0.23474431  0.59545997    -0.13100
N4033       N  0.96870781  0.28485904  0.58732849     0.64100
H4034       H  0.93263899  0.28323441  0.61744383     0.11900
N4035       N  0.92358427  0.21925515  0.61909631     0.60700
H4036       H  0.95987461  0.22123951  0.58892505     0.08100
O4037       O  0.98934485  0.26767757  0.48409290    -0.40800
O4038       O  0.98465297  0.23780670  0.48135413    -0.39900
O4039       O  0.01574422  0.22823354  0.61580116    -0.39900
O4040       O  0.01747813  0.25830169  0.61901157    -0.37600
O4041       O  0.91177385  0.21081413  0.60179374    -0.38500
O4042       O  0.93101915  0.21038918  0.63926311    -0.34700
O4043       O  0.96118403  0.29367210  0.56715994    -0.36100
O4044       O  0.98164253  0.29298382  0.60374819    -0.40400
C4045       C  0.19600028  0.25645619  0.32410334    -0.14100
C4046       C  0.21563123  0.24982380  0.33626999     0.16300
C4047       C  0.21480578  0.24219506  0.36243875     0.02600
C4048       C  0.19436691  0.24110130  0.37594358    -0.12600
C4049       C  0.17443401  0.24749201  0.36387083    -0.03700
C4050       C  0.17541442  0.25541210  0.33763738     0.01800
C4051       C  0.23672889  0.25080486  0.32106585     0.08700
N4052       N  0.23457996  0.23571847  0.37576902     0.65000
H4053       H  0.19423473  0.23541157  0.39630230     0.17900
N4054       N  0.15576803  0.26171555  0.32389712     0.75500
H4055       H  0.19664749  0.26227436  0.30382855     0.09400
C4056       C  0.24398840  0.23572536  0.30538552     0.03100
C4057       C  0.26312797  0.23745864  0.28957366    -0.05600
C4058       C  0.27517524  0.25424651  0.28826425    -0.24000
C4059       C  0.26794283  0.26935336  0.30440932     0.12400
C4060       C  0.24883714  0.26743842  0.32071078    -0.13100
N4061       N  0.23149109  0.21884135  0.30410738     0.64100
H4062       H  0.26815161  0.22552541  0.27765241     0.11900
N4063       N  0.27902590  0.28689577  0.30379461     0.60700
H4064       H  0.24305530  0.27915288  0.33260220     0.08100
O4065       O  0.14609696  0.25087040  0.30753873    -0.40800
O4066       O  0.15241463  0.27893506  0.32176943    -0.39900
O4067       O  0.24428143  0.24619764  0.39260461    -0.39900
O4068       O  0.23849291  0.21852646  0.37642906    -0.37600
O4069       O  0.29200209  0.29116974  0.32304280    -0.38500
O4070       O  0.27130368  0.29957383  0.28881216    -0.34700
O4071       O  0.21902744  0.21593806  0.28383415    -0.36100
O4072       O  0.23764897  0.20525841  0.31841938    -0.40400
C4073       C  0.16422317  0.24279815  0.66551526    -0.14100
C4074       C  0.15395132  0.25881060  0.65540648     0.16300
C4075       C  0.14962618  0.27363073  0.67332346     0.02600
C4076       C  0.15553079  0.27216919  0.70086246    -0.12600
C4077       C  0.16589963  0.25610979  0.71123323    -0.03700
C4078       C  0.17025865  0.24127851  0.69295530     0.01800
C4079       C  0.14585286  0.25870919  0.62685483     0.08700
N4080       N  0.13908269  0.29022598  0.66400274     0.65000
H4081       H  0.15212008  0.28382834  0.71412136     0.17900
N4082       N  0.18037281  0.22435433  0.70175571     0.75500
H4083       H  0.16726367  0.23118847  0.65200673     0.09400
C4084       C  0.15881689  0.26558733  0.60520012     0.03100
C4085       C  0.15115076  0.26372958  0.57836011    -0.05600
C4086       C  0.13077417  0.25475932  0.57232694    -0.24000
C4087       C  0.11792300  0.24776314  0.59426729     0.12400
C4088       C  0.12552777  0.24986296  0.62106275    -0.13100
N4089       N  0.18016121  0.27392075  0.60995587     0.64100
H4090       H  0.16153813  0.26902883  0.56209263     0.11900
N4091       N  0.09685555  0.23884189  0.58999678     0.60700
H4092       H  0.11556771  0.24429728  0.63754740     0.08100
O4093       O  0.20067609  0.22139257  0.69616419    -0.40800
O4094       O  0.16799283  0.21082699  0.70796729    -0.39900
O4095       O  0.11849142  0.29262439  0.66857042    -0.39900
O4096       O  0.15110152  0.30404818  0.65815619    -0.37600
O4097       O  0.09597036  0.22135249  0.59006694    -0.38500
O4098       O  0.07909817  0.24799849  0.59363261    -0.34700
O4099       O  0.19759732  0.26418937  0.60731444    -0.36100
O4100       O  0.18182372  0.29136209  0.60945698    -0.40400
C4101       C  0.13378202  0.61637631  0.30983682    -0.14100
C4102       C  0.14027306  0.62112447  0.28344591     0.16300
C4103       C  0.14036143  0.60719620  0.26321539     0.02600
C4104       C  0.13393360  0.58895648  0.26978643    -0.12600
C4105       C  0.12812561  0.58418602  0.29649326    -0.03700
C4106       C  0.12791428  0.59821355  0.31655240     0.01800
C4107       C  0.14958415  0.64005588  0.27932602     0.08700
N4108       N  0.14714388  0.61121807  0.23606909     0.65000
H4109       H  0.13429084  0.57835149  0.25418480     0.17900
N4110       N  0.12191626  0.59431479  0.34402684     0.75500
H4111       H  0.13416806  0.62674824  0.32577732     0.09400
C4112       C  0.13686664  0.65598957  0.28574156     0.03100
C4113       C  0.14760517  0.67297632  0.29016409    -0.05600
C4114       C  0.17099148  0.67460801  0.28845330    -0.24000
C4115       C  0.18357927  0.65901674  0.28014064     0.12400
C4116       C  0.17278137  0.64196281  0.27555903    -0.13100
N4117       N  0.11313136  0.65499572  0.28924675     0.64100
H4118       H  0.13761802  0.68483841  0.29623126     0.11900
N4119       N  0.20746776  0.65960480  0.27928713     0.60700
H4120       H  0.18286190  0.62978869  0.27138284     0.08100
O4121       O  0.10238184  0.59818144  0.35199013    -0.40800
O4122       O  0.13728029  0.59236792  0.36140137    -0.39900
O4123       O  0.16640725  0.60632997  0.22833006    -0.39900
O4124       O  0.13233760  0.61469201  0.21849755    -0.37600
O4125       O  0.21845329  0.65404287  0.29961735    -0.38500
O4126       O  0.21711425  0.66073777  0.25657529    -0.34700
O4127       O  0.10515215  0.65499420  0.31296495    -0.36100
O4128       O  0.10060039  0.65941522  0.26964834    -0.40400
C4129       C  0.05513856  0.49718165  0.50192706    -0.14100
C4130       C  0.03277441  0.50306389  0.50349233     0.16300
C4131       C  0.02204008  0.50943187  0.47975278     0.02600
C4132       C  0.03363691  0.50963493  0.45518065    -0.12600
C4133       C  0.05600974  0.50367760  0.45344148    -0.03700
C4134       C  0.06678371  0.49735419  0.47724591     0.01800
C4135       C  0.02156262  0.50363608  0.53033481     0.08700
N4136       N  0.99926727  0.51554009  0.48001912     0.65000
H4137       H  0.02486785  0.51441317  0.43721563     0.17900
N4138       N  0.08988595  0.49229117  0.47730048     0.75500
H4139       H  0.06390522  0.49298959  0.52018270     0.09400
C4140       C  0.01996152  0.48774921  0.54688920     0.03100
C4141       C  0.01016738  0.48906754  0.57252305    -0.05600
C4142       C  0.00188457  0.50600128  0.58251611    -0.24000
C4143       C  0.00379955  0.52200070  0.56608172     0.12400
C4144       C  0.01357668  0.52064536  0.54027768    -0.13100
N4145       N  0.02782181  0.47004344  0.53793475     0.64100
H4146       H  0.00887481  0.47655778  0.58461474     0.11900
N4147       N  0.99714876  0.53988053  0.57564100     0.60700
H4148       H  0.01552830  0.53310809  0.52823589     0.08100
O4149       O  0.10413866  0.50420479  0.48463000    -0.40800
O4150       O  0.09506892  0.47532922  0.47802818    -0.39900
O4151       O  0.99523101  0.53272085  0.47948535    -0.39900
O4152       O  0.98412263  0.50436654  0.47280592    -0.37600
O4153       O  0.01181835  0.55050398  0.58559785    -0.38500
O4154       O  0.97903879  0.54677324  0.56709851    -0.34700
O4155       O  0.04660863  0.46432930  0.54621493    -0.36100
O4156       O  0.01380969  0.45841108  0.52908976    -0.40400
C4157       C  0.98221868  0.50073336  0.24467827    -0.14100
C4158       C  0.98473791  0.50633822  0.21773607     0.16300
C4159       C  0.00586804  0.51229136  0.20837605     0.02600
C4160       C  0.02423730  0.51197323  0.22599043    -0.12600
C4161       C  0.02186220  0.50564280  0.25274813    -0.03700
C4162       C  0.00050522  0.50022985  0.26217298     0.01800
C4163       C  0.96469360  0.50668558  0.20044101     0.08700
N4164       N  0.00913603  0.51804174  0.18090681     0.65000
H4165       H  0.04053017  0.51616395  0.21847581     0.17900
N4166       N  0.99687756  0.49464142  0.28962555     0.75500
H4167       H  0.96584457  0.49685388  0.25228363     0.09400
C4168       C  0.95229060  0.49042994  0.19527951     0.03100
C4169       C  0.93282912  0.49143158  0.17982373    -0.05600
C4170       C  0.92504181  0.50845243  0.16987344    -0.24000
C4171       C  0.93681365  0.52487824  0.17628509     0.12400
C4172       C  0.95666062  0.52379890  0.19124404    -0.13100
N4173       N  0.95919684  0.47277587  0.20547225     0.64100
H4174       H  0.92370953  0.47874512  0.17557968     0.11900
N4175       N  0.92927320  0.54267716  0.16746236     0.60700
H4176       H  0.96566893  0.53642904  0.19608910     0.08100
O4177       O  0.98957696  0.50639004  0.30643187    -0.40800
O4178       O  0.99484759  0.47759497  0.29484497    -0.39900
O4179       O  0.01005834  0.53514208  0.17558051    -0.39900
O4180       O  0.01690140  0.50657161  0.16399502    -0.37600
O4181       O  0.92012813  0.55332496  0.18451743    -0.38500
O4182       O  0.93752324  0.54954695  0.14615030    -0.34700
O4183       O  0.94964555  0.46633374  0.22627789    -0.36100
O4184       O  0.96949921  0.46182207  0.18988142    -0.40400
C4185       C  0.13704894  0.51231578  0.16540085    -0.14100
C4186       C  0.15656805  0.50212006  0.16047489     0.16300
C4187       C  0.16697654  0.49272623  0.18207835     0.02600
C4188       C  0.15775046  0.49370797  0.20816019    -0.12600
C4189       C  0.13800671  0.50383748  0.21338536    -0.03700
C4190       C  0.12761320  0.51321008  0.19140753     0.01800
C4191       C  0.16591854  0.50217059  0.13269781     0.08700
N4192       N  0.18688343  0.48209841  0.17797144     0.65000
H4193       H  0.16625737  0.48644959  0.22443393     0.17900
N4194       N  0.10710825  0.52317366  0.19464115     0.75500
H4195       H  0.12895339  0.51956756  0.14879391     0.09400
C4196       C  0.15938523  0.48887549  0.11337457     0.03100
C4197       C  0.16605476  0.49077804  0.08633726    -0.05600
C4198       C  0.17928243  0.50584109  0.07773821    -0.24000
C4199       C  0.18611818  0.51906825  0.09745927     0.12400
C4200       C  0.17933285  0.51709034  0.12457417    -0.13100
N4201       N  0.14548961  0.47355529  0.12067188     0.64100
H4202       H  0.16060648  0.48031238  0.07198567     0.11900
N4203       N  0.19943479  0.53482335  0.09047391     0.60700
H4204       H  0.18412169  0.52754697  0.13930438     0.08100
O4205       O  0.08894436  0.51524181  0.18854059    -0.40800
O4206       O  0.10765685  0.54065457  0.19576790    -0.39900
O4207       O  0.20556074  0.48912284  0.18416593    -0.39900
O4208       O  0.18532331  0.46471716  0.17562537    -0.37600
O4209       O  0.18998221  0.55029847  0.08696214    -0.38500
O4210       O  0.22024935  0.53436745  0.09491904    -0.34700
O4211       O  0.12489284  0.47411684  0.11495217    -0.36100
O4212       O  0.15451350  0.45807987  0.12551840    -0.40400
C4213       C  0.09588701  0.39453215  0.38923531    -0.14100
C4214       C  0.07579707  0.38528855  0.38390676     0.16300
C4215       C  0.05770549  0.39525369  0.37273468     0.02600
C4216       C  0.06028385  0.41407866  0.36620602    -0.12600
C4217       C  0.08054059  0.42341819  0.37130480    -0.03700
C4218       C  0.09840666  0.41338237  0.38332537     0.01800
C4219       C  0.07426583  0.36536052  0.39093711     0.08700
N4220       N  0.03664939  0.38648743  0.36782905     0.65000
H4221       H  0.04621569  0.42148464  0.35747613     0.17900
N4222       N  0.11945973  0.42183638  0.38929743     0.75500
H4223       H  0.10979371  0.38701795  0.39817284     0.09400
C4224       C  0.08634612  0.35194977  0.37623925     0.03100
C4225       C  0.08667508  0.33352800  0.38502026    -0.05600
C4226       C  0.07550427  0.32792083  0.40881761    -0.24000
C4227       C  0.06361490  0.34159212  0.42379634     0.12400
C4228       C  0.06297978  0.36002956  0.41457873    -0.13100
N4229       N  0.09867594  0.35683939  0.35245378     0.64100
H4230       H  0.09604909  0.32361347  0.37303648     0.11900
N4231       N  0.05278105  0.33734694  0.44887059     0.60700
H4232       H  0.05426328  0.37040343  0.42650858     0.08100
O4233       O  0.13470506  0.42134524  0.37158794    -0.40800
O4234       O  0.12482427  0.42419774  0.41384407    -0.39900
O4235       O  0.02102221  0.38857920  0.38478923    -0.39900
O4236       O  0.03205465  0.38091234  0.34418761    -0.37600
O4237       O  0.06295861  0.34053529  0.47085587    -0.38500
O4238       O  0.03176780  0.33549654  0.44919224    -0.34700
O4239       O  0.11976999  0.35766949  0.35367740    -0.36100
O4240       O  0.08930535  0.35552697  0.32956499    -0.40400
C4241       C  0.42790199  0.86385933  0.02135301    -0.14100
C4242       C  0.40582208  0.86815352  0.02885939     0.16300
C4243       C  0.39151936  0.85363522  0.03700543     0.02600
C4244       C  0.40009662  0.83568962  0.04024129    -0.12600
C4245       C  0.42282452  0.83168164  0.03538205    -0.03700
C4246       C  0.43648753  0.84582810  0.02439195     0.01800
C4247       C  0.39885240  0.88792990  0.03113996     0.08700
N4248       N  0.36868581  0.85707726  0.04409673     0.65000
H4249       H  0.38908259  0.82498782  0.04801249     0.17900
N4250       N  0.45954318  0.84267146  0.01831953     0.75500
H4251       H  0.43891125  0.87480732  0.01436402     0.09400
C4252       C  0.41003343  0.90000213  0.04913069     0.03100
C4253       C  0.40209104  0.91799322  0.05314361    -0.05600
C4254       C  0.38294636  0.92463254  0.03961256    -0.24000
C4255       C  0.37276945  0.91301017  0.01988627     0.12400
C4256       C  0.38061494  0.89475305  0.01613793    -0.13100
N4257       N  0.42881492  0.89391919  0.06477488     0.64100
H4258       H  0.41074580  0.92663263  0.06779556     0.11900
N4259       N  0.35426997  0.91920743  0.00387818     0.60700
H4260       H  0.37227868  0.88579716  0.00162692     0.08100
O4261       O  0.47425016  0.84852250  0.03462584    -0.40800
O4262       O  0.46505757  0.83914280  0.99413766    -0.39900
O4263       O  0.35341318  0.85247677  0.02769029    -0.39900
O4264       O  0.36372592  0.86012018  0.06859320    -0.37600
O4265       O  0.35800779  0.92605778  0.98074937    -0.38500
O4266       O  0.33487842  0.91334066  0.00931698    -0.34700
O4267       O  0.44812238  0.89968794  0.05868634    -0.36100
O4268       O  0.42553292  0.88704386  0.08797925    -0.40400
C4269       C  0.56093527  0.75989886  0.28267344    -0.14100
C4270       C  0.53755179  0.75796339  0.28192512     0.16300
C4271       C  0.52593884  0.75454466  0.30630596     0.02600
C4272       C  0.53777100  0.75273504  0.33061518    -0.12600
C4273       C  0.56115608  0.75470793  0.33153682    -0.03700
C4274       C  0.57277252  0.75858563  0.30721408     0.01800
C4275       C  0.52578875  0.75830432  0.25539308     0.08700
N4276       N  0.50203600  0.75374726  0.30703367     0.65000
H4277       H  0.52842608  0.75025436  0.34912200     0.17900
N4278       N  0.59656261  0.76048211  0.30671730     0.75500
H4279       H  0.57013489  0.76211968  0.26400704     0.09400
C4280       C  0.52741120  0.77357596  0.23766772     0.03100
C4281       C  0.51686717  0.77298758  0.21236751    -0.05600
C4282       C  0.50462227  0.75735613  0.20394553    -0.24000
C4283       C  0.50326959  0.74191382  0.22159548     0.12400
C4284       C  0.51378321  0.74257308  0.24703502    -0.13100
N4285       N  0.53926187  0.79000818  0.24519154     0.64100
H4286       H  0.51812707  0.78505047  0.19933903     0.11900
N4287       N  0.49222944  0.72516310  0.21373162     0.60700
H4288       H  0.51301601  0.73050690  0.26010945     0.08100
O4289       O  0.60827689  0.74675587  0.29957657    -0.40800
O4290       O  0.60492884  0.77653096  0.30546948    -0.46300
O4291       O  0.49254809  0.73822159  0.30974062    -0.39900
O4292       O  0.49126191  0.76830531  0.31268360    -0.37600
O4293       O  0.50376425  0.71189554  0.20455711    -0.38500
O4294       O  0.47284661  0.72191634  0.22273331    -0.34700
O4295       O  0.55830981  0.79299171  0.23500212    -0.36100
O4296       O  0.52846296  0.80341335  0.25518950    -0.40400
C4297       C  0.57924395  0.75112969  0.99929518    -0.14100
C4298       C  0.57891571  0.76020188  0.97427657     0.16300
C4299       C  0.55878251  0.76815057  0.96487336     0.02600
C4300       C  0.53920489  0.76635378  0.98028478    -0.12600
C4301       C  0.53926603  0.75653241  0.00487198    -0.03700
C4302       C  0.55981827  0.74919728  0.01462769     0.01800
C4303       C  0.59899617  0.75849312  0.95712714     0.08700
N4304       N  0.55756705  0.77725796  0.93920015     0.65000
H4305       H  0.52375668  0.77222915  0.97254615     0.17900
N4306       N  0.56157391  0.73996065  0.04019869     0.75500
H4307       H  0.59469740  0.74501213  0.00667147     0.09400
C4308       C  0.61308113  0.77359261  0.95117439     0.03100
C4309       C  0.63248128  0.77069182  0.93593818    -0.05600
C4310       C  0.63841925  0.75287995  0.92682352    -0.24000
C4311       C  0.62474560  0.73763829  0.93395600     0.12400
C4312       C  0.60516150  0.74063636  0.94872759    -0.13100
N4313       N  0.60853560  0.79179613  0.96119490     0.64100
H4314       H  0.64272244  0.78259363  0.93085195     0.11900
N4315       N  0.63071913  0.71899410  0.92717943     0.60700
H4316       H  0.59479519  0.72884495  0.95409005     0.08100
O4317       O  0.56296329  0.72249237  0.04058289    -0.40800
O4318       O  0.56809916  0.74905285  0.06063220    -0.39900
O4319       O  0.55123365  0.76811347  0.91874081    -0.39900
O4320       O  0.55610638  0.79471114  0.93867505    -0.37600
O4321       O  0.64271201  0.70983302  0.94347881    -0.38500
O4322       O  0.61951879  0.71045463  0.90938617    -0.34700
O4323       O  0.61827127  0.79707333  0.98259708    -0.36100
O4324       O  0.60124726  0.80388436  0.94492463    -0.40400
C4325       C  0.30858212  0.76675514  0.21331660    -0.14100
C4326       C  0.31983242  0.74991956  0.20951454     0.16300
C4327       C  0.31202036  0.73383245  0.22267939     0.02600
C4328       C  0.29311197  0.73486836  0.23930625    -0.12600
C4329       C  0.28213361  0.75182423  0.24362841    -0.03700
C4330       C  0.28994703  0.76788844  0.23028717     0.01800
C4331       C  0.34082915  0.75015882  0.19385656     0.08700
N4332       N  0.32318565  0.71642432  0.21967790     0.65000
H4333       H  0.28748240  0.72245970  0.24967773     0.17900
N4334       N  0.27909522  0.78541939  0.23341394     0.75500
H4335       H  0.31473802  0.77926671  0.20367811     0.09400
C4336       C  0.34118587  0.75620680  0.16668253     0.03100
C4337       C  0.36160160  0.75918060  0.15377691    -0.05600
C4338       C  0.38191142  0.75620896  0.16739444    -0.24000
C4339       C  0.38161336  0.74996898  0.19455189     0.12400
C4340       C  0.36108236  0.74700319  0.20751401    -0.13100
N4341       N  0.32097523  0.75929731  0.15180127     0.64100
H4342       H  0.36152497  0.76358078  0.13272936     0.11900
N4343       N  0.40179895  0.74772112  0.20980657     0.60700
H4344       H  0.36095638  0.74303687  0.22873337     0.08100
O4345       O  0.26601405  0.79094526  0.21497722    -0.40800
O4346       O  0.28724601  0.79711278  0.24973853    -0.39900
O4347       O  0.33577028  0.71075117  0.23852802    -0.39900
O4348       O  0.31589222  0.70494289  0.20246918    -0.37600
O4349       O  0.40777857  0.73162344  0.21675350    -0.38500
O4350       O  0.40973127  0.76150532  0.22235686    -0.34700
O4351       O  0.31487487  0.77573612  0.14702836    -0.36100
O4352       O  0.31318972  0.74631850  0.13742006    -0.40400
C4353       C  0.38777264  0.40329349  0.23715131    -0.14100
C4354       C  0.40213706  0.39078195  0.25033068     0.16300
C4355       C  0.42294088  0.39754744  0.26010787     0.02600
C4356       C  0.42936037  0.41597921  0.25515068    -0.12600
C4357       C  0.41557056  0.42815759  0.24049176    -0.03700
C4358       C  0.39410895  0.42177805  0.23241483     0.01800
C4359       C  0.39667370  0.37046836  0.24957100     0.08700
N4360       N  0.43799938  0.38589910  0.27487491     0.65000
H4361       H  0.44573868  0.42053469  0.26193109     0.17900
N4362       N  0.37832143  0.43382770  0.21961260     0.75500
H4363       H  0.37185813  0.39851386  0.22924341     0.09400
C4364       C  0.37558996  0.36316492  0.25737098     0.03100
C4365       C  0.37040254  0.34442656  0.25229881    -0.05600
C4366       C  0.38571983  0.33252629  0.23936829    -0.24000
C4367       C  0.40707773  0.33973043  0.23255246     0.12400
C4368       C  0.41212231  0.35842456  0.23737201    -0.13100
N4369       N  0.35914090  0.37448456  0.27039121     0.64100
H4370       H  0.35394713  0.33933924  0.25782431     0.11900
N4371       N  0.42410342  0.32833197  0.22086723     0.60700
H4372       H  0.42809010  0.36370234  0.23042704     0.08100
O4373       O  0.37489121  0.43219395  0.19444585    -0.40800
O4374       O  0.36363641  0.44162449  0.23408085    -0.39900
O4375       O  0.45540600  0.37998982  0.26319437    -0.39900
O4376       O  0.43760372  0.38643765  0.30047173    -0.37600
O4377       O  0.43896561  0.32158875  0.23619381    -0.38500
O4378       O  0.42796973  0.32957914  0.19575302    -0.34700
O4379       O  0.34180615  0.37909063  0.25733968    -0.36100
O4380       O  0.35873264  0.37507247  0.29598584    -0.40400
C4381       C  0.56296257  0.50449494  0.00775706    -0.14100
C4382       C  0.53949071  0.50375490  0.00978994     0.16300
C4383       C  0.52667699  0.50266904  0.98576007     0.02600
C4384       C  0.53730981  0.50290580  0.96049030    -0.12600
C4385       C  0.56071955  0.50387146  0.95836313    -0.03700
C4386       C  0.57366103  0.50438022  0.98235757     0.01800
C4387       C  0.52859736  0.50502258  0.03691190     0.08700
N4388       N  0.50285179  0.50086298  0.98659947     0.65000
H4389       H  0.52711896  0.50222698  0.94228079     0.17900
N4390       N  0.59750318  0.50585795  0.98139635     0.75500
H4391       H  0.57304615  0.50569325  0.02597064     0.09400
C4392       C  0.53373304  0.49246559  0.05788654     0.03100
C4393       C  0.52293537  0.49393792  0.08292979    -0.05600
C4394       C  0.50699834  0.50793069  0.08819758    -0.24000
C4395       C  0.50261160  0.52105701  0.06747314     0.12400
C4396       C  0.51330813  0.51940600  0.04216974    -0.13100
N4397       N  0.54951714  0.47779606  0.05403677     0.64100
H4398       H  0.52702350  0.48370634  0.09825218     0.11900
N4399       N  0.48787570  0.53639233  0.07173548     0.60700
H4400       H  0.50984945  0.52961785  0.02658926     0.08100
O4401       O  0.60923530  0.49173963  0.98660506    -0.40800
O4402       O  0.60641437  0.52170718  0.98261287    -0.39900
O4403       O  0.49080351  0.51455876  0.98016395    -0.39900
O4404       O  0.49433984  0.48484502  0.98660601    -0.37600
O4405       O  0.49610169  0.55202880  0.07753091    -0.38500
O4406       O  0.46813049  0.53554487  0.06266206    -0.34700
O4407       O  0.56841231  0.47886014  0.06545216    -0.36100
O4408       O  0.54260480  0.46220014  0.04597234    -0.40400
C4409       C  0.32738627  0.50145601  0.03916489    -0.14100
C4410       C  0.32710615  0.51218875  0.06277590     0.16300
C4411       C  0.30807946  0.52307414  0.06861176     0.02600
C4412       C  0.28943840  0.52243948  0.05131953    -0.12600
C4413       C  0.28920185  0.51090945  0.02827891    -0.03700
C4414       C  0.30875527  0.50048550  0.02213843     0.01800
C4415       C  0.34692978  0.51144846  0.08080864     0.08700
N4416       N  0.30688581  0.53409615  0.09266513     0.65000
H4417       H  0.27478920  0.53055501  0.05658107     0.17900
N4418       N  0.31013945  0.48857607  0.99899604     0.75500
H4419       H  0.34218033  0.49345676  0.03407287     0.09400
C4420       C  0.35443846  0.49442081  0.09145772     0.03100
C4421       C  0.37407986  0.49371382  0.10667576    -0.05600
C4422       C  0.38675487  0.50974530  0.11205182    -0.24000
C4423       C  0.37951096  0.52679784  0.10065193     0.12400
C4424       C  0.35970208  0.52745955  0.08527720    -0.13100
N4425       N  0.34199265  0.47768669  0.08763950     0.64100
H4426       H  0.37914613  0.48036753  0.11471267     0.11900
N4427       N  0.39171805  0.54361642  0.10450139     0.60700
H4428       H  0.35443417  0.54052063  0.07645199     0.08100
O4429       O  0.30756329  0.47134489  0.00225261    -0.40800
O4430       O  0.31997402  0.49432477  0.97795861    -0.39900
O4431       O  0.30826265  0.55150850  0.09069718    -0.39900
O4432       O  0.29851011  0.52712298  0.11383440    -0.37600
O4433       O  0.38506635  0.55499839  0.12221864    -0.38500
O4434       O  0.40428378  0.54928720  0.08566652    -0.34700
O4435       O  0.34929014  0.46558698  0.07136521    -0.36100
O4436       O  0.32781529  0.47301610  0.10533695    -0.40400
C4437       C  0.56178361  0.49180386  0.31151600    -0.14100
C4438       C  0.56472209  0.50620204  0.33033303     0.16300
C4439       C  0.54737394  0.51933596  0.33391725     0.02600
C4440       C  0.52764037  0.51777569  0.31875410    -0.12600
C4441       C  0.52491326  0.50346908  0.29980787    -0.03700
C4442       C  0.54219702  0.49039920  0.29615536     0.01800
C4443       C  0.58680760  0.50800817  0.34383207     0.08700
N4444       N  0.54971968  0.53467344  0.35209106     0.65000
H4445       H  0.51470319  0.52822108  0.32101859     0.17900
N4446       N  0.54128374  0.47698247  0.27480962     0.75500
H4447       H  0.57535890  0.48221849  0.30747597     0.09400
C4448       C  0.59652511  0.49296026  0.35788996     0.03100
C4449       C  0.61811418  0.49456556  0.36849919    -0.05600
C4450       C  0.63021560  0.51110599  0.36601552    -0.24000
C4451       C  0.62074143  0.52609303  0.35163198     0.12400
C4452       C  0.59929620  0.52433425  0.34037459    -0.13100
N4453       N  0.58431360  0.47625068  0.36276822     0.64100
H4454       H  0.62496422  0.48310551  0.38009470     0.11900
N4455       N  0.63285428  0.54296177  0.34765620     0.60700
H4456       H  0.59252805  0.53568583  0.32853931     0.08100
O4457       O  0.54917835  0.48111920  0.25183556    -0.40800
O4458       O  0.53828374  0.46013836  0.28068615    -0.39900
O4459       O  0.55314088  0.55062709  0.34240299    -0.39900
O4460       O  0.54214815  0.53325237  0.37589895    -0.37600
O4461       O  0.64480922  0.54474838  0.32670685    -0.38500
O4462       O  0.62725233  0.55723199  0.36085303    -0.34700
O4463       O  0.58926451  0.46183784  0.34951572    -0.36100
O4464       O  0.57342855  0.47465961  0.38458550    -0.40400
C4465       C  0.50238270  0.61670196  0.18152995    -0.14100
C4466       C  0.49160283  0.62324844  0.15814300     0.16300
C4467       C  0.48014922  0.61062789  0.14136693     0.02600
C4468       C  0.47931663  0.59191206  0.14829215    -0.12600
C4469       C  0.48919479  0.58517607  0.17231493    -0.03700
C4470       C  0.50126465  0.59787872  0.18884464     0.01800
C4471       C  0.49252629  0.64317702  0.15100516     0.08700
N4472       N  0.46798512  0.61676351  0.11804068     0.65000
H4473       H  0.47002941  0.58276707  0.13497314     0.17900
N4474       N  0.51192262  0.59223462  0.21345925     0.75500
H4475       H  0.51150982  0.62630777  0.19436217     0.09400
C4476       C  0.48215258  0.65679500  0.16716100     0.03100
C4477       C  0.48114547  0.67513503  0.15806061    -0.05600
C4478       C  0.49011095  0.68035444  0.13276051    -0.24000
C4479       C  0.50172680  0.66677774  0.11737526     0.12400
C4480       C  0.50281942  0.64845149  0.12668407    -0.13100
N4481       N  0.47125073  0.65207260  0.19201105     0.64100
H4482       H  0.47246533  0.68518497  0.17058590     0.11900
N4483       N  0.51147401  0.67091069  0.09161039     0.60700
H4484       H  0.51116876  0.63809183  0.11434698     0.08100
O4485       O  0.50207734  0.59515813  0.23571028    -0.40800
O4486       O  0.53280954  0.58952961  0.21350418    -0.39900
O4487       O  0.47583211  0.61364628  0.09470358    -0.39900
O4488       O  0.44747870  0.62066512  0.12048848    -0.37600
O4489       O  0.53217301  0.67434644  0.09035811    -0.38500
O4490       O  0.50128000  0.66602657  0.07032072    -0.34700
O4491       O  0.48028431  0.65660274  0.21421640    -0.36100
O4492       O  0.45066798  0.64810251  0.19161662    -0.40400
C4493       C  0.37901552  0.86337456  0.77498193    -0.14100
C4494       C  0.39935165  0.86918948  0.76340297     0.16300
C4495       C  0.41301357  0.85587800  0.75052587     0.02600
C4496       C  0.40539477  0.83771975  0.74737793    -0.12600
C4497       C  0.38404958  0.83224139  0.75635295    -0.03700
C4498       C  0.37132643  0.84502909  0.77178602     0.01800
C4499       C  0.40549288  0.88922721  0.76284602     0.08700
N4500       N  0.43383848  0.86086663  0.73825931     0.65000
H4501       H  0.41590330  0.82808074  0.73627522     0.17900
N4502       N  0.35020316  0.84005861  0.78322871     0.75500
H4503       H  0.36869385  0.87329031  0.78578940     0.09400
C4504       C  0.39163907  0.90237926  0.74989612     0.03100
C4505       C  0.39961679  0.92031584  0.74501024    -0.05600
C4506       C  0.42138925  0.92567445  0.75260740    -0.24000
C4507       C  0.43455041  0.91295428  0.76764625     0.12400
C4508       C  0.42645983  0.89497372  0.77266433    -0.13100
N4509       N  0.37009028  0.89739223  0.73957443     0.64100
H4510       H  0.38893893  0.92989529  0.73403825     0.11900
N4511       N  0.45683565  0.91733456  0.77598226     0.60700
H4512       H  0.43712408  0.88513006  0.78313239     0.08100
O4513       O  0.33250140  0.84620095  0.77248293    -0.40800
O4514       O  0.34957631  0.83432154  0.80741592    -0.39900
O4515       O  0.45188211  0.85559366  0.74917033    -0.39900
O4516       O  0.43400890  0.86591040  0.71373648    -0.37600
O4517       O  0.46046499  0.92109362  0.80062180    -0.38500
O4518       O  0.47297031  0.91218159  0.76126337    -0.34700
O4519       O  0.35277542  0.90303322  0.75172047    -0.36100
O4520       O  0.36842701  0.89160484  0.71547669    -0.40400
C4521       C  0.27536660  0.75997211  0.55291882    -0.14100
C4522       C  0.28901580  0.75394435  0.53149903     0.16300
C4523       C  0.31169718  0.74973762  0.53693626     0.02600
C4524       C  0.31998330  0.75124896  0.56344835    -0.12600
C4525       C  0.30638789  0.75736275  0.58491940    -0.03700
C4526       C  0.28375745  0.76190812  0.57930399     0.01800
C4527       C  0.27908817  0.75331011  0.50380540     0.08700
N4528       N  0.32704268  0.74503900  0.51579799     0.65000
H4529       H  0.33748872  0.74808972  0.56703816     0.17900
N4530       N  0.26881826  0.76819819  0.60001322     0.75500
H4531       H  0.25794975  0.76335217  0.54907191     0.09400
C4532       C  0.27742831  0.73675755  0.48864210     0.03100
C4533       C  0.26650809  0.73682924  0.46352178    -0.05600
C4534       C  0.25634665  0.75293535  0.45317748    -0.24000
C4535       C  0.25739481  0.76939814  0.46877884     0.12400
C4536       C  0.26898519  0.76946555  0.49354860    -0.13100
N4537       N  0.28513559  0.71941290  0.49908186     0.64100
H4538       H  0.26538254  0.72387959  0.45240875     0.11900
N4539       N  0.24683527  0.78615943  0.46005301     0.60700
H4540       H  0.26972856  0.78221859  0.50519334     0.08100
O4541       O  0.26559656  0.78539673  0.60280216    -0.40800
O4542       O  0.25463387  0.75701294  0.60960630    -0.39900
O4543       O  0.33805206  0.75792462  0.50476321    -0.39900
O4544       O  0.33495095  0.72881346  0.51518923    -0.37600
O4545       O  0.22777125  0.79021586  0.46938793    -0.38500
O4546       O  0.25863711  0.79878737  0.44960024    -0.34700
O4547       O  0.27172652  0.70970796  0.51284867    -0.36100
O4548       O  0.30123592  0.71143549  0.48729567    -0.40400
C4549       C  0.46128475  0.77254823  0.60044978    -0.14100
C4550       C  0.46290160  0.75723845  0.58311620     0.16300
C4551       C  0.44655524  0.74319812  0.58435340     0.02600
C4552       C  0.42862688  0.74499461  0.60228563    -0.12600
C4553       C  0.42656240  0.76057562  0.61932796    -0.03700
C4554       C  0.44339233  0.77441167  0.61841010     0.01800
C4555       C  0.48250091  0.75595391  0.56509410     0.08700
N4556       N  0.44754501  0.72723339  0.56717672     0.65000
H4557       H  0.41627769  0.73400323  0.60275141     0.17900
N4558       N  0.44265766  0.79057417  0.63517531     0.75500
H4559       H  0.47417919  0.78312968  0.60021478     0.09400
C4560       C  0.48765478  0.77027421  0.54674909     0.03100
C4561       C  0.50759625  0.76968785  0.53222560    -0.05600
C4562       C  0.52278593  0.75490306  0.53515656    -0.24000
C4563       C  0.51744588  0.74043890  0.55357063     0.12400
C4564       C  0.49749615  0.74121467  0.56838648    -0.13100
N4565       N  0.47270674  0.78546260  0.54229349     0.64100
H4566       H  0.51099501  0.78100129  0.51836190     0.11900
N4567       N  0.53169477  0.72475487  0.55748449     0.60700
H4568       H  0.49394897  0.73040170  0.58303234     0.08100
O4569       O  0.43509129  0.80547451  0.62535685    -0.40800
O4570       O  0.45488387  0.79125811  0.65606836    -0.39900
O4571       O  0.45474741  0.71215192  0.57682015    -0.39900
O4572       O  0.43565522  0.72686072  0.54599146    -0.37600
O4573       O  0.52627646  0.70951954  0.54669020    -0.38500
O4574       O  0.54494610  0.72466285  0.57746399    -0.34700
O4575       O  0.47786567  0.80127739  0.55134790    -0.36100
O4576       O  0.45840588  0.78427184  0.52349547    -0.40400
C4577       C  0.24119642  0.73546964  0.80783626    -0.14100
C4578       C  0.23637507  0.75135732  0.82301099     0.16300
C4579       C  0.25190073  0.76601744  0.82382449     0.02600
C4580       C  0.27147305  0.76489408  0.80841034    -0.12600
C4581       C  0.27612699  0.74918630  0.79244156    -0.03700
C4582       C  0.26092944  0.73406698  0.79295001     0.01800
C4583       C  0.21639927  0.75084944  0.84034675     0.08700
N4584       N  0.24858116  0.78179409  0.84089797     0.65000
H4585       H  0.28291647  0.77655460  0.80878304     0.17900
N4586       N  0.26528659  0.71700462  0.77909744     0.75500
H4587       H  0.22966899  0.72384134  0.80800645     0.09400
C4588       C  0.19700651  0.76123924  0.83468354     0.03100
C4589       C  0.17779894  0.75855083  0.85035901    -0.05600
C4590       C  0.17745455  0.74560558  0.87174509    -0.24000
C4591       C  0.19699617  0.73498385  0.87688271     0.12400
C4592       C  0.21610850  0.73778385  0.86125151    -0.13100
N4593       N  0.19620175  0.77415308  0.81272076     0.64100
H4594       H  0.16309158  0.76675381  0.84566846     0.11900
N4595       N  0.19820784  0.72161386  0.89820639     0.60700
H4596       H  0.23090907  0.72950282  0.86532108     0.08100
O4597       O  0.27291274  0.70345174  0.79242344    -0.40800
O4598       O  0.25581382  0.71398292  0.75661493    -0.39900
O4599       O  0.25747028  0.78189242  0.86414885    -0.39900
O4600       O  0.24318766  0.79704106  0.83017540    -0.37600
O4601       O  0.19588833  0.70466056  0.89244829    -0.38500
O4602       O  0.20795401  0.72601593  0.92001926    -0.34700
O4603       O  0.18687925  0.76930976  0.79083546    -0.36100
O4604       O  0.19815058  0.79121996  0.81786635    -0.40400
C4605       C  0.39335061  0.76989331  0.87014175    -0.14100
C4606       C  0.40288664  0.75331938  0.87952898     0.16300
C4607       C  0.40322948  0.73775168  0.86217757     0.02600
C4608       C  0.39464322  0.73914851  0.83581788    -0.12600
C4609       C  0.38535692  0.75579947  0.82614413    -0.03700
C4610       C  0.38457195  0.77129118  0.84382000     0.01800
C4611       C  0.41107224  0.75240084  0.90798129     0.08700
N4612       N  0.41268161  0.72050417  0.87069209     0.65000
H4613       H  0.39523014  0.72700786  0.82284520     0.17900
N4614       N  0.37555658  0.78870870  0.83532314     0.75500
H4615       H  0.39250869  0.78183605  0.88347894     0.09400
C4616       C  0.42797026  0.76436850  0.91758383     0.03100
C4617       C  0.43392182  0.76424693  0.94504382    -0.05600
C4618       C  0.42343938  0.75232248  0.96373969    -0.24000
C4619       C  0.40650459  0.74017423  0.95388804     0.12400
C4620       C  0.40055904  0.74040085  0.92631503    -0.13100
N4621       N  0.43968348  0.77650880  0.89962806     0.64100
H4622       H  0.44700755  0.77364439  0.95161892     0.11900
N4623       N  0.39503238  0.72749016  0.97126987     0.60700
H4624       H  0.38726472  0.73135318  0.91927390     0.08100
O4625       O  0.38877474  0.80133647  0.82774612    -0.40800
O4626       O  0.35585438  0.79297673  0.84218122    -0.39900
O4627       O  0.39979380  0.70708150  0.87579677    -0.39900
O4628       O  0.43305846  0.71729703  0.86579322    -0.37600
O4629       O  0.37568919  0.73163014  0.97963067    -0.38500
O4630       O  0.40101742  0.71070320  0.97139083    -0.34700
O4631       O  0.43530716  0.79363002  0.90013970    -0.36100
O4632       O  0.45795408  0.77114839  0.88942941    -0.40400
C4633       C  0.42914412  0.36462988  0.52906510    -0.14100
C4634       C  0.40695786  0.36942382  0.53539053     0.16300
C4635       C  0.39161957  0.35522113  0.54184852     0.02600
C4636       C  0.39912472  0.33697395  0.54433107    -0.12600
C4637       C  0.42171796  0.33234922  0.54031214    -0.03700
C4638       C  0.43663839  0.34624636  0.53132787     0.01800
C4639       C  0.40049239  0.38926227  0.53715817     0.08700
N4640       N  0.36864425  0.35914430  0.54760890     0.65000
H4641       H  0.38729115  0.32641441  0.55063429     0.17900
N4642       N  0.45967499  0.34231090  0.52613144     0.75500
H4643       H  0.44092327  0.37533613  0.52322062     0.09400
C4644       C  0.41167376  0.40143745  0.55500198     0.03100
C4645       C  0.40375751  0.41944408  0.55856015    -0.05600
C4646       C  0.38462257  0.42591604  0.54483595    -0.24000
C4647       C  0.37452782  0.41419351  0.52524562     0.12400
C4648       C  0.38245588  0.39600250  0.52177057    -0.13100
N4649       N  0.43042506  0.39553974  0.57086481     0.64100
H4650       H  0.41243854  0.42823713  0.57299719     0.11900
N4651       N  0.35595275  0.42014866  0.50919977     0.60700
H4652       H  0.37422075  0.38697751  0.50726920     0.08100
O4653       O  0.47414023  0.34688537  0.54359129    -0.40800
O4654       O  0.46581319  0.33949803  0.50197078    -0.39900
O4655       O  0.35403610  0.35542889  0.52988360    -0.39900
O4656       O  0.36262801  0.36122739  0.57196991    -0.37600
O4657       O  0.35946274  0.42535762  0.48512613    -0.38500
O4658       O  0.33650453  0.41503520  0.51582793    -0.34700
O4659       O  0.44976110  0.40101366  0.56433354    -0.36100
O4660       O  0.42712670  0.38970133  0.59466899    -0.40400
C4661       C  0.28530676  0.52541204  0.74111175    -0.14100
C4662       C  0.27800540  0.50864684  0.75266559     0.16300
C4663       C  0.28123834  0.49204840  0.73796181     0.02600
C4664       C  0.29227390  0.49242119  0.71296089    -0.12600
C4665       C  0.29998695  0.50909449  0.70155789    -0.03700
C4666       C  0.29606094  0.52581038  0.71575927     0.01800
C4667       C  0.26641655  0.50890665  0.77947469     0.08700
N4668       N  0.27354657  0.47459484  0.74801670     0.65000
H4669       H  0.29489710  0.47940060  0.70240742     0.17900
N4670       N  0.30143367  0.54337590  0.70411386     0.75500
H4671       H  0.28201748  0.53839194  0.75145794     0.09400
C4672       C  0.27625599  0.51735904  0.80240236     0.03100
C4673       C  0.26468578  0.51788092  0.82702160    -0.05600
C4674       C  0.24324976  0.50999009  0.82987771    -0.24000
C4675       C  0.23338080  0.50146460  0.80691778     0.12400
C4676       C  0.24489625  0.50119172  0.78203514    -0.13100
N4677       N  0.29834068  0.52498626  0.80143509     0.64100
H4678       H  0.27295588  0.52423589  0.84427614     0.11900
N4679       N  0.21156092  0.49339907  0.80813479     0.60700
H4680       H  0.23676634  0.49514139  0.76447766     0.08100
O4681       O  0.31754900  0.55253182  0.71385333    -0.40800
O4682       O  0.28673896  0.55170242  0.69028287    -0.39900
O4683       O  0.25628295  0.46742160  0.73756656    -0.39900
O4684       O  0.28703631  0.46434773  0.76082047    -0.37600
O4685       O  0.19487494  0.50292718  0.80084738    -0.38500
O4686       O  0.20976102  0.47597711  0.80923553    -0.34700
O4687       O  0.30067546  0.54237994  0.80088823    -0.36100
O4688       O  0.31464445  0.51505857  0.80884398    -0.40400
C4689       C  0.44761343  0.48796218  0.70920830    -0.14100
C4690       C  0.45407739  0.50577153  0.71738876     0.16300
C4691       C  0.44185540  0.52123922  0.70829665     0.02600
C4692       C  0.42393770  0.51869888  0.69048287    -0.12600
C4693       C  0.41775656  0.50089777  0.68143202    -0.03700
C4694       C  0.42954297  0.48534447  0.69156597     0.01800
C4695       C  0.47489862  0.50773499  0.73316690     0.08700
N4696       N  0.44727393  0.53960378  0.71701397     0.65000
H4697       H  0.41521259  0.53089594  0.68320952     0.17900
N4698       N  0.42322085  0.46680037  0.68481651     0.75500
H4699       H  0.45701179  0.47598696  0.71610067     0.09400
C4700       C  0.47693982  0.50001224  0.75925883     0.03100
C4701       C  0.49780141  0.49951154  0.77191214    -0.05600
C4702       C  0.51700606  0.50637778  0.75893573    -0.24000
C4703       C  0.51492664  0.51432432  0.73283283     0.12400
C4704       C  0.49388183  0.51502046  0.72028755    -0.13100
N4705       N  0.45805340  0.49239687  0.77310285     0.64100
H4706       H  0.49893590  0.49362818  0.79211635     0.11900
N4707       N  0.53405492  0.52049926  0.71796812     0.60700
H4708       H  0.49253686  0.52045526  0.69983406     0.08100
O4709       O  0.41188521  0.45759990  0.70170868    -0.40800
O4710       O  0.43401566  0.45826426  0.66668067    -0.39900
O4711       O  0.45786231  0.55014764  0.70112352    -0.39900
O4712       O  0.43626683  0.54667141  0.73628137    -0.37600
O4713       O  0.53783467  0.53766978  0.71617301    -0.38500
O4714       O  0.54300162  0.50963867  0.70104353    -0.34700
O4715       O  0.45515734  0.47506055  0.77285646    -0.36100
O4716       O  0.44849645  0.50196863  0.79115036    -0.40400
C4717       C  0.25602416  0.49598176  0.45577485    -0.14100
C4718       C  0.23700876  0.50484811  0.46626086     0.16300
C4719       C  0.23811058  0.51364998  0.49164664     0.02600
C4720       C  0.25824838  0.51394760  0.50580124    -0.12600
C4721       C  0.27760687  0.50546052  0.49532226    -0.03700
C4722       C  0.27627685  0.49603381  0.47019201     0.01800
C4723       C  0.21611808  0.50491062  0.45049727     0.08700
N4724       N  0.21906011  0.52273770  0.50311249     0.65000
H4725       H  0.25857176  0.52076661  0.52541873     0.17900
N4726       N  0.29526661  0.48696799  0.45858487     0.75500
H4727       H  0.25511261  0.48900739  0.43630109     0.09400
C4728       C  0.21434615  0.51520200  0.42643259     0.03100
C4729       C  0.19416144  0.51554489  0.41236967    -0.05600
C4730       C  0.17531598  0.50580255  0.42178902    -0.24000
C4731       C  0.17729535  0.49512259  0.44580335     0.12400
C4732       C  0.19764902  0.49486889  0.45993857    -0.13100
N4733       N  0.23264837  0.52595803  0.41645569     0.64100
H4734       H  0.19339206  0.52353666  0.39376366     0.11900
N4735       N  0.15886664  0.48504225  0.45685323     0.60700
H4736       H  0.19901739  0.48688579  0.47851132     0.08100
O4737       O  0.29666261  0.46953098  0.46006431    -0.40800
O4738       O  0.30659267  0.49539912  0.44085066    -0.39900
O4739       O  0.20855867  0.51497102  0.52219960    -0.39900
O4740       O  0.21657126  0.53992356  0.49935106    -0.37600
O4741       O  0.14824003  0.49210269  0.47641356    -0.38500
O4742       O  0.15834505  0.46767303  0.45375626    -0.34700
O4743       O  0.24398115  0.51984421  0.39677738    -0.36100
O4744       O  0.23341172  0.54303492  0.42199922    -0.40400
C4745       C  0.39178840  0.51063527  0.36137424    -0.14100
C4746       C  0.40730675  0.50387052  0.38035276     0.16300
C4747       C  0.42767665  0.49642495  0.37096840     0.02600
C4748       C  0.43248482  0.49633780  0.34319164    -0.12600
C4749       C  0.41714764  0.50318549  0.32393951    -0.03700
C4750       C  0.39636147  0.51017452  0.33335430     0.01800
C4751       C  0.40115431  0.50316807  0.40954964     0.08700
N4752       N  0.44367258  0.48869727  0.38933022     0.65000
H4753       H  0.44853183  0.49086759  0.33673599     0.17900
N4754       N  0.37917184  0.51577901  0.31490267     0.75500
H4755       H  0.37572865  0.51579462  0.36832053     0.09400
C4756       C  0.40162095  0.51904487  0.42624546     0.03100
C4757       C  0.39517112  0.51777581  0.45355647    -0.05600
C4758       C  0.38753726  0.50097714  0.46469403    -0.24000
C4759       C  0.38675143  0.48510932  0.44765111     0.12400
C4760       C  0.39378852  0.48633899  0.42053148    -0.13100
N4761       N  0.40827898  0.53665162  0.41575229     0.64100
H4762       H  0.39561187  0.53020315  0.46593898     0.11900
N4763       N  0.37913332  0.46755576  0.45740505     0.60700
H4764       H  0.39312161  0.47409214  0.40777077     0.08100
O4765       O  0.37533664  0.53284192  0.31163508    -0.40800
O4766       O  0.36440077  0.50415991  0.30803165    -0.39900
O4767       O  0.44400442  0.47135978  0.39280533    -0.39900
O4768       O  0.46074195  0.49809245  0.39560102    -0.37600
O4769       O  0.35888377  0.46312630  0.45389426    -0.38500
O4770       O  0.39332526  0.45496929  0.46202047    -0.34700
O4771       O  0.39343556  0.54861468  0.41061810    -0.36100
O4772       O  0.42833697  0.54180592  0.41862230    -0.40400
C4773       C  0.33114836  0.61277770  0.64984211    -0.14100
C4774       C  0.31689964  0.62313942  0.63314816     0.16300
C4775       C  0.30681345  0.61429582  0.61070629     0.02600
C4776       C  0.31093229  0.59543340  0.60569126    -0.12600
C4777       C  0.32505906  0.58484483  0.62261323    -0.03700
C4778       C  0.33515690  0.59392392  0.64513363     0.01800
C4779       C  0.31457603  0.64336929  0.63870728     0.08700
N4780       N  0.29198073  0.62408796  0.59303734     0.65000
H4781       H  0.30287527  0.58909294  0.58829182     0.17900
N4782       N  0.34973615  0.58456448  0.66355886     0.75500
H4783       H  0.33975303  0.61950222  0.66654146     0.09400
C4784       C  0.30833758  0.64993203  0.66462105     0.03100
C4785       C  0.31070030  0.66872055  0.67104236    -0.05600
C4786       C  0.31909559  0.68154550  0.65211677    -0.24000
C4787       C  0.32359475  0.67520415  0.62541152     0.12400
C4788       C  0.32156450  0.65624734  0.61912232    -0.13100
N4789       N  0.29971035  0.63768477  0.68487467     0.64100
H4790       H  0.30667688  0.67308836  0.69152112     0.11900
N4791       N  0.32973770  0.68770143  0.60420865     0.60700
H4792       H  0.32625563  0.65149565  0.59904349     0.08100
O4793       O  0.37059844  0.58601394  0.66007984    -0.40800
O4794       O  0.34253058  0.58088706  0.68701461    -0.39900
O4795       O  0.29804015  0.62734019  0.56896815    -0.39900
O4796       O  0.27142852  0.62481138  0.59888396    -0.37600
O4797       O  0.34971535  0.68775792  0.59589135    -0.38500
O4798       O  0.31455813  0.69393159  0.58886578    -0.34700
O4799       O  0.31246294  0.63229039  0.70373242    -0.36100
O4800       O  0.27878953  0.63679900  0.68824099    -0.40400
loop_ 
_geom_bond_atom_site_label_1 
_geom_bond_atom_site_label_2 
_geom_bond_distance 
_geom_bond_site_symmetry_2 
_ccdc_geom_bond_type 
Zr1           O2   2.435       .  S
Zr1           O3   2.459       .  S
Zr1           O4   2.443       .  S
Zr1           O7   2.422       .  S
Zr1           O9   2.371       .  S
Zr1          O10   2.381       .  S
Zr1          O11   2.416       .  S
Zr1          O12   2.413       .  S
O2           H58   0.990       .  S
O2           H66   0.989       .  S
O3           C23   1.286       .  A
O4           C25   1.284       .  A
O5          Zr15   2.422       .  S
O5           C24   1.281       .  A
O6          Zr14   2.448       .  S
O6           C25   1.289       .  A
O7           C24   1.283       .  A
O8          Zr16   2.406       .  S
O8           C23   1.279       .  A
O9          Zr14   2.396       .  S
O9          Zr16   2.385       .  S
O10         Zr15   2.396       .  S
O10         Zr16   2.372       .  S
O10          H45   0.965       .  S
O11         Zr14   2.390       .  S
O11         Zr31   2.401       .  S
O11          H48   0.965       .  S
O12         Zr15   2.389       .  S
O12         Zr31   2.406       .  S
Zr13         O38   2.438       .  S
Zr13         O32   2.426       .  S
Zr13         O40   2.447       .  S
Zr13         O28   2.437       .  S
Zr13         O19   2.408       .  S
Zr13         O20   2.406       .  S
Zr13         O21   2.389       .  S
Zr13         O22   2.385       .  S
Zr14         O33   2.436       .  S
Zr14         O26   2.435       .  S
Zr14         O27   2.422       .  S
Zr14         O20   2.406       .  S
Zr14         O21   2.394       .  S
Zr15         O17   2.435       .  S
Zr15         O39   2.436       .  S
Zr15         O41   2.414       .  S
Zr15         O19   2.395       .  S
Zr15         O22   2.392       .  S
Zr16         O42   2.437       .  S
Zr16         O43   2.434       .  S
Zr16         O18   2.437       .  S
Zr16         O19   2.398       .  S
Zr16         O20   2.374       .  S
O17          H54   0.990       .  S
O18          H49   0.990       .  S
O18          H63   0.990       .  S
O20          H46   0.965       .  S
O21         Zr31   2.372       .  S
O22         Zr31   2.368       .  S
O22          H47   0.966       .  S
C23        C4665   1.488       .  S
C24        C4693   1.482       .  S
C25        C4777   1.501       .  S
O26          H62   0.990       .  S
O27          C29   1.286       .  A
O28          C29   1.285       .  A
C29        C4721   1.477       .  S
O30         Zr31   2.435       .  S
O30          H59   0.990       .  S
Zr31         O34   2.436       .  S
Zr31         O35   2.437       .  S
Zr31         O36   2.451       .  S
O32          C37   1.281       .  A
O33          H50   0.990       .  S
O33          H65   0.990       .  S
O34          H51   0.990       .  S
O35          H55   0.990       .  S
O35          H64   0.990       .  S
O36          C37   1.288       .  A
C37        C4758   1.493       .  S
O38          H57   0.990       .  S
O38          H61   0.990       .  S
O39          H53   0.990       .  S
O39          H60   0.990       .  S
O40          C44   1.285       .  A
O41          C44   1.284       .  A
O42          H52   0.990       .  S
O43          H56   0.990       .  S
C44        C4646   1.490       .  S
Zr67         O68   2.439       .  S
Zr67         O69   2.443       .  S
Zr67         O70   2.449       .  S
Zr67         O73   2.423       .  S
Zr67         O75   2.369       .  S
Zr67         O76   2.385       .  S
Zr67         O77   2.406       .  S
Zr67         O78   2.404       .  S
O68         H124   0.990       .  S
O68         H132   0.990       .  S
O69          C89   1.287       .  A
O70          C91   1.285       .  A
O71         Zr81   2.413       .  S
O71          C90   1.280       .  A
O72         Zr80   2.432       .  S
O72          C91   1.285       .  A
O73          C90   1.284       .  A
O74         Zr82   2.414       .  S
O74          C89   1.279       .  A
O75         Zr80   2.385       .  S
O75         Zr82   2.382       .  S
O76         Zr81   2.396       .  S
O76         Zr82   2.379       .  S
O76         H111   0.968       .  S
O77         Zr80   2.385       .  S
O77         Zr97   2.406       .  S
O77         H114   0.966       .  S
O78         Zr81   2.387       .  S
O78         Zr97   2.392       .  S
Zr79        O104   2.439       .  S
Zr79         O98   2.426       .  S
Zr79        O106   2.457       .  S
Zr79         O94   2.438       .  S
Zr79         O85   2.405       .  S
Zr79         O86   2.407       .  S
Zr79         O87   2.388       .  S
Zr79         O88   2.384       .  S
Zr80         O99   2.436       .  S
Zr80         O92   2.433       .  S
Zr80         O93   2.398       .  S
Zr80         O86   2.405       .  S
Zr80         O87   2.391       .  S
Zr81         O83   2.436       .  S
Zr81        O105   2.436       .  S
Zr81        O107   2.418       .  S
Zr81         O85   2.390       .  S
Zr81         O88   2.385       .  S
Zr82        O108   2.435       .  S
Zr82        O109   2.435       .  S
Zr82         O84   2.436       .  S
Zr82         O85   2.397       .  S
Zr82         O86   2.387       .  S
O83         H120   0.990       .  S
O84         H115   0.990       .  S
O84         H129   0.990       .  S
O86         H112   0.967       .  S
O87         Zr97   2.369       .  S
O88         Zr97   2.371       .  S
O88         H113   0.966       .  S
C89        C4525   1.488       .  S
C90        C4553   1.482       .  S
C91        C4786   1.495       .  S
O92         H128   0.990       .  S
O93          C95   1.278       .  A
O94          C95   1.288       .  A
C95        C4581   1.480       .  S
O96         Zr97   2.435       .  S
O96         H125   0.990       .  S
Zr97        O100   2.435       .  S
Zr97        O101   2.438       .  S
Zr97        O102   2.436       .  S
O98         C103   1.282       .  A
O99         H116   0.990       .  S
O99         H131   0.990       .  S
O100        H117   0.990       .  S
O101        H121   0.990       .  S
O101        H130   0.990       .  S
O102        C103   1.286       .  A
C103       C4609   1.487       .  S
O104        H123   0.990       .  S
O104        H127   0.990       .  S
O105        H119   0.990       .  S
O105        H126   0.989       .  S
O106        C110   1.287       .  A
O107        C110   1.284       .  A
O108        H118   0.990       .  S
O109        H122   0.990       .  S
C110       C4497   1.493       .  S
Zr133       O134   2.439       .  S
Zr133       O135   2.461       .  S
Zr133       O136   2.436       .  S
Zr133       O139   2.445       .  S
Zr133       O141   2.375       .  S
Zr133       O142   2.389       .  S
Zr133       O143   2.415       .  S
Zr133       O144   2.414       .  S
O134        H190   0.990       .  S
O134        H198   0.990       .  S
O135        C155   1.287       .  A
O136        C157   1.286       .  A
O137       Zr147   2.417       .  S
O137        C156   1.283       .  A
O138       Zr146   2.434       .  S
O138        C157   1.283       .  A
O139        C156   1.283       .  A
O140       Zr148   2.403       .  S
O140        C155   1.280       .  A
O141       Zr146   2.393       .  S
O141       Zr148   2.382       .  S
O142       Zr147   2.393       .  S
O142       Zr148   2.380       .  S
O142        H177   0.965       .  S
O143       Zr146   2.391       .  S
O143       Zr163   2.401       .  S
O143        H180   0.964       .  S
O144       Zr147   2.394       .  S
O144       Zr163   2.402       .  S
Zr145       O170   2.440       .  S
Zr145       O164   2.430       .  S
Zr145       O172   2.466       .  S
Zr145       O160   2.446       .  S
Zr145       O151   2.403       .  S
Zr145       O152   2.407       .  S
Zr145       O153   2.389       .  S
Zr145       O154   2.377       .  S
Zr146       O165   2.435       .  S
Zr146       O158   2.435       .  S
Zr146       O159   2.414       .  S
Zr146       O152   2.396       .  S
Zr146       O153   2.397       .  S
Zr147       O149   2.434       .  S
Zr147       O171   2.436       .  S
Zr147       O173   2.431       .  S
Zr147       O151   2.392       .  S
Zr147       O154   2.390       .  S
Zr148       O174   2.435       .  S
Zr148       O175   2.437       .  S
Zr148       O150   2.438       .  S
Zr148       O151   2.401       .  S
Zr148       O152   2.371       .  S
O149        H186   0.990       .  S
O150        H181   0.990       .  S
O150        H195   0.990       .  S
O152        H178   0.966       .  S
O153       Zr163   2.378       .  S
O154       Zr163   2.368       .  S
O154        H179   0.967       .  S
C155       C4394   1.497       .  S
C156       C4422   1.491       .  S
C157       C4469   1.496       .  S
O158        H194   0.990       .  S
O159        C161   1.281       .  A
O160        C161   1.287       .  A
C161       C4441   1.465       .  S
O162       Zr163   2.437       .  S
O162        H191   0.990       .  S
Zr163       O166   2.435       .  S
Zr163       O167   2.438       .  S
Zr163       O168   2.445       .  S
O164        C169   1.285       .  A
O165        H182   0.990       .  S
O165        H197   0.990       .  S
O166        H183   0.990       .  S
O167        H187   0.990       .  S
O167        H196   0.990       .  S
O168        C169   1.285       .  A
C169       C4749   1.494       .  S
O170        H189   0.990       .  S
O170        H193   0.990       .  S
O171        H185   0.990       .  S
O171        H192   0.990       .  S
O172        C176   1.291       .  A
O173        C176   1.284       .  A
O174        H184   0.991       .  S
O175        H188   0.990       .  S
C176       C4357   1.496       .  S
Zr199       O200   2.441       .  S
Zr199       O201   2.437       .  S
Zr199       O202   2.434       .  S
Zr199       O205   2.430       .  S
Zr199       O207   2.370       .  S
Zr199       O208   2.387       .  S
Zr199       O209   2.406       .  S
Zr199       O210   2.412       .  S
O200        H256   0.990       .  S
O200        H264   0.990       .  S
O201        C221   1.282       .  A
O202        C223   1.285       .  A
O203       Zr213   2.413       .  S
O203        C222   1.282       .  A
O204       Zr212   2.430       .  S
O204        C223   1.282       .  A
O205        C222   1.281       .  A
O206       Zr214   2.410       .  S
O206        C221   1.280       .  A
O207       Zr212   2.392       .  S
O207       Zr214   2.382       .  S
O208       Zr213   2.394       .  S
O208       Zr214   2.371       .  S
O208        H243   0.964       .  S
O209       Zr212   2.388       .  S
O209       Zr229   2.393       .  S
O209        H246   0.965       .  S
O210       Zr213   2.396       .  S
O210       Zr229   2.396       .  S
Zr211       O236   2.441       .  S
Zr211       O230   2.447   1_554  S
Zr211       O238   2.461       .  S
Zr211       O226   2.465       .  S
Zr211       O217   2.408       .  S
Zr211       O218   2.412       .  S
Zr211       O219   2.385       .  S
Zr211       O220   2.387       .  S
Zr212       O231   2.434       .  S
Zr212       O224   2.431       .  S
Zr212       O225   2.401       .  S
Zr212       O218   2.410       .  S
Zr212       O219   2.397       .  S
Zr213       O215   2.436       .  S
Zr213       O237   2.436       .  S
Zr213       O239   2.423       .  S
Zr213       O217   2.383       .  S
Zr213       O220   2.393       .  S
Zr214       O240   2.437       .  S
Zr214       O241   2.437       .  S
Zr214       O216   2.436       .  S
Zr214       O217   2.398       .  S
Zr214       O218   2.377       .  S
O215        H252   0.990       .  S
O216        H247   0.990       .  S
O216        H261   0.990       .  S
O218        H244   0.964       .  S
O219       Zr229   2.384       .  S
O220       Zr229   2.378       .  S
O220        H245   0.966       .  S
C221       C4282   1.485       .  S
C222       C4338   1.470       .  S
C223       C4478   1.491       .  S
O224        H260   0.990       .  S
O225        C227   1.279       .  A
O226        C227   1.291       .  A
C227       C4301   1.480       .  S
O228       Zr229   2.439       .  S
O228        H257   0.990       .  S
Zr229       O232   2.437       .  S
Zr229       O233   2.439       .  S
Zr229       O234   2.424       .  S
O230        C235   1.288       .  A
O231        H248   0.990       .  S
O231        H263   0.990       .  S
O232        H249   0.990       .  S
O233        H253   0.990       .  S
O233        H262   0.989       .  S
O234        C235   1.280   1_554  A
C235       C4618   1.498       .  S
O236        H255   0.990       .  S
O236        H259   0.990   1_554  S
O237        H251   0.990       .  S
O237        H258   0.990       .  S
O238        C242   1.288       .  A
O239        C242   1.284       .  A
O240        H250   0.990       .  S
O241        H254   0.990       .  S
C242       C4245   1.493       .  S
Zr265       O266   2.441       .  S
Zr265       O267   2.442       .  S
Zr265       O268   2.471       .  S
Zr265       O271   2.436       .  S
Zr265       O273   2.379       .  S
Zr265       O274   2.395       .  S
Zr265       O275   2.405       .  S
Zr265       O276   2.403       .  S
O266        H322   0.990       .  S
O266        H330   0.990       .  S
O267        C287   1.283       .  A
O268        C289   1.290       .  A
O269       Zr279   2.409       .  S
O269        C288   1.281       .  A
O270       Zr278   2.413       .  S
O270        C289   1.281       .  A
O271        C288   1.286       .  A
O272       Zr280   2.425       .  S
O272        C287   1.283       .  A
O273       Zr278   2.398       .  S
O273       Zr280   2.383       .  S
O274       Zr279   2.404       .  S
O274       Zr280   2.372       .  S
O274        H309   0.965       .  S
O275       Zr278   2.397       .  S
O275       Zr295   2.386       .  S
O275        H312   0.965       .  S
O276       Zr279   2.393       .  S
O276       Zr295   2.380       .  S
Zr277       O302   2.430       .  S
Zr277       O296   2.449       .  S
Zr277       O304   2.438       .  S
Zr277       O292   2.434       .  S
Zr277       O283   2.406       .  S
Zr277       O284   2.413       .  S
Zr277       O285   2.378       .  S
Zr277       O286   2.382       .  S
Zr278       O297   2.434       .  S
Zr278       O290   2.435       .  S
Zr278       O291   2.418       .  S
Zr278       O284   2.391       .  S
Zr278       O285   2.387       .  S
Zr279       O281   2.434       .  S
Zr279       O303   2.439       .  S
Zr279       O305   2.439       .  S
Zr279       O283   2.386       .  S
Zr279       O286   2.390       .  S
Zr280       O306   2.437       .  S
Zr280       O307   2.435       .  S
Zr280       O282   2.437       .  S
Zr280       O283   2.394       .  S
Zr280       O284   2.392       .  S
O281        H318   0.990       .  S
O282        H313   0.991       .  S
O282        H327   0.990       .  S
O284        H310   0.965       .  S
O285       Zr295   2.378       .  S
O286       Zr295   2.384       .  S
O286        H311   0.966       .  S
C287       C4189   1.495       .  S
C288       C4161   1.469       .  S
C289       C4105   1.482       .  S
O290        H326   0.990       .  S
O291        C293   1.284       .  A
O292        C293   1.281       .  A
C293       C4730   1.479       .  S
O294       Zr295   2.435       .  S
O294        H323   0.990       .  S
Zr295       O298   2.436       .  S
Zr295       O299   2.437       .  S
Zr295       O300   2.401       .  S
O296        C301   1.284       .  A
O297        H314   0.990       .  S
O297        H329   0.990       .  S
O298        H315   0.990       .  S
O299        H319   0.990       .  S
O299        H328   0.990       .  S
O300        C301   1.279       .  A
C301       C4133   1.483       .  S
O302        H321   0.990       .  S
O302        H325   0.989       .  S
O303        H317   0.990       .  S
O303        H324   0.990       .  S
O304        C308   1.283       .  A
O305        C308   1.286       .  A
O306        H316   0.990       .  S
O307        H320   0.990       .  S
C308       C4217   1.489       .  S
Zr331       O332   2.438       .  S
Zr331       O333   2.440       .  S
Zr331       O334   2.459       .  S
Zr331       O337   2.428       .  S
Zr331       O339   2.380       .  S
Zr331       O340   2.388       .  S
Zr331       O341   2.408       .  S
Zr331       O342   2.399       .  S
O332        H388   0.990       .  S
O332        H396   0.990       .  S
O333        C353   1.284       .  A
O334        C355   1.287       .  A
O335       Zr345   2.413       .  S
O335        C354   1.282       .  A
O336       Zr344   2.419       .  S
O336        C355   1.283       .  A
O337        C354   1.285       .  A
O338       Zr346   2.442       .  S
O338        C353   1.286       .  A
O339       Zr344   2.396       .  S
O339       Zr346   2.375       .  S
O340       Zr345   2.399       .  S
O340       Zr346   2.370       .  S
O340        H375   0.966       .  S
O341       Zr344   2.389       .  S
O341       Zr361   2.402       .  S
O341        H378   0.965       .  S
O342       Zr345   2.394       .  S
O342       Zr361   2.384       .  S
Zr343       O368   2.440       .  S
Zr343       O362   2.465       .  S
Zr343       O370   2.447       .  S
Zr343       O358   2.446       .  S
Zr343       O349   2.405       .  S
Zr343       O350   2.422       .  S
Zr343       O351   2.381       .  S
Zr343       O352   2.382       .  S
Zr344       O363   2.435       .  S
Zr344       O356   2.435       .  S
Zr344       O357   2.417       .  S
Zr344       O350   2.395       .  S
Zr344       O351   2.388       .  S
Zr345       O347   2.435       .  S
Zr345       O369   2.440       .  S
Zr345       O371   2.436       .  S
Zr345       O349   2.386       .  S
Zr345       O352   2.397       .  S
Zr346       O372   2.436       .  S
Zr346       O373   2.436       .  S
Zr346       O348   2.438       .  S
Zr346       O349   2.400       .  S
Zr346       O350   2.400       .  S
O347        H384   0.990       .  S
O348        H379   0.990       .  S
O348        H393   0.990       .  S
O350        H376   0.966       .  S
O351       Zr361   2.381       .  S
O352       Zr361   2.392       .  S
O352        H377   0.967       .  S
C353       C4086   1.499       .  S
C354       C4021   1.468       .  S
C355       C3974   1.496       .  S
O356        H392   0.990       .  S
O357        C359   1.283       .  A
O358        C359   1.285       .  A
C359       C4049   1.480       .  S
O360       Zr361   2.435       .  S
O360        H389   0.990       .  S
Zr361       O364   2.436       .  S
Zr361       O365   2.437       .  S
Zr361       O366   2.417       .  S
O362        C367   1.290       .  A
O363        H380   0.990       .  S
O363        H395   0.990       .  S
O364        H381   0.990       .  S
O365        H385   0.990       .  S
O365        H394   0.990       .  S
O366        C367   1.279       .  A
C367       C4002   1.490       .  S
O368        H387   0.990       .  S
O368        H391   0.991       .  S
O369        H383   0.990       .  S
O369        H390   0.990       .  S
O370        C374   1.287       .  A
O371        C374   1.283       .  A
O372        H382   0.990       .  S
O373        H386   0.990       .  S
C374       C4226   1.498       .  S
Zr397       O398   2.439   1_556  S
Zr397       O399   2.429   1_556  S
Zr397       O400   2.479   1_556  S
Zr397       O403   2.456   1_556  S
Zr397       O405   2.377       .  S
Zr397       O406   2.393       .  S
Zr397       O407   2.403       .  S
Zr397       O408   2.401       .  S
O398        H454   0.991       .  S
O398        H462   0.990       .  S
O399        C419   1.282       .  A
O400        C421   1.293   1_554  A
O401       Zr411   2.404       .  S
O401        C420   1.280   1_556  A
O402       Zr410   2.398       .  S
O402        C421   1.277       .  A
O403        C420   1.291       .  A
O404       Zr412   2.432   1_554  S
O404        C419   1.285       .  A
O405       Zr410   2.390       .  S
O405       Zr412   2.372       .  S
O406       Zr411   2.401       .  S
O406       Zr412   2.366       .  S
O406        H441   0.964   1_556  S
O407       Zr410   2.399       .  S
O407       Zr427   2.395       .  S
O407        H444   0.966       .  S
O408       Zr411   2.402       .  S
O408       Zr427   2.384       .  S
Zr409       O434   2.440       .  S
Zr409       O428   2.459       .  S
Zr409       O436   2.433       .  S
Zr409       O424   2.435       .  S
Zr409       O415   2.409       .  S
Zr409       O416   2.407       .  S
Zr409       O417   2.379       .  S
Zr409       O418   2.376       .  S
Zr410       O429   2.437       .  S
Zr410       O422   2.432       .  S
Zr410       O423   2.405       .  S
Zr410       O416   2.390       .  S
Zr410       O417   2.394       .  S
Zr411       O413   2.434       .  S
Zr411       O435   2.439       .  S
Zr411       O437   2.444       .  S
Zr411       O415   2.388       .  S
Zr411       O418   2.388       .  S
Zr412       O438   2.436   1_556  S
Zr412       O439   2.434       .  S
Zr412       O414   2.440       .  S
Zr412       O415   2.403       .  S
Zr412       O416   2.394       .  S
O413        H450   0.990       .  S
O414        H445   0.990   1_556  S
O414        H459   0.990       .  S
O416        H442   0.956       .  S
O417       Zr427   2.381       .  S
O418       Zr427   2.384       .  S
O418        H443   0.964       .  S
C419       C4198   1.494       .  S
C420       C4413   1.488       .  S
C421       C3881   1.494   1_556  S
O422        H458   0.990       .  S
O423        C425   1.279       .  A
O424        C425   1.285       .  A
C425       C3909   1.468       .  S
O426       Zr427   2.437       .  S
O426        H455   0.990       .  S
Zr427       O430   2.435       .  S
Zr427       O431   2.438       .  S
Zr427       O432   2.411       .  S
O428        C433   1.287       .  A
O429        H446   0.990       .  S
O429        H461   0.990       .  S
O430        H447   0.990       .  S
O431        H451   0.990       .  S
O431        H460   0.990       .  S
O432        C433   1.281       .  A
C433       C4674   1.493       .  S
O434        H453   0.990       .  S
O434        H457   0.990       .  S
O435        H449   0.990       .  S
O435        H456   0.990   1_556  S
O436        C440   1.284       .  A
O437        C440   1.285       .  A
O438        H448   0.990       .  S
O439        H452   0.990       .  S
C440       C3937   1.499       .  S
Zr463       O464   2.436       .  S
Zr463       O465   2.429       .  S
Zr463       O466   2.448       .  S
Zr463       O469   2.437       .  S
Zr463       O471   2.383       .  S
Zr463       O472   2.391       .  S
Zr463       O473   2.401       .  S
Zr463       O474   2.406       .  S
O464        H520   0.990       .  S
O464        H528   0.990       .  S
O465        C485   1.282       .  A
O466        C487   1.286       .  A
O467       Zr477   2.413       .  S
O467        C486   1.284       .  A
O468       Zr476   2.430       .  S
O468        C487   1.286       .  A
O469        C486   1.283       .  A
O470       Zr478   2.454       .  S
O470        C485   1.289       .  A
O471       Zr476   2.396       .  S
O471       Zr478   2.376       .  S
O472       Zr477   2.391       .  S
O472       Zr478   2.369       .  S
O472        H507   0.966       .  S
O473       Zr476   2.389       .  S
O473       Zr493   2.389       .  S
O473        H510   0.966       .  S
O474       Zr477   2.398       .  S
O474       Zr493   2.384       .  S
Zr475       O500   2.438       .  S
Zr475       O494   2.466       .  S
Zr475       O502   2.439       .  S
Zr475       O490   2.438       .  S
Zr475       O481   2.413       .  S
Zr475       O482   2.421       .  S
Zr475       O483   2.383       .  S
Zr475       O484   2.381       .  S
Zr476       O495   2.435       .  S
Zr476       O488   2.434       .  S
Zr476       O489   2.424       .  S
Zr476       O482   2.398       .  S
Zr476       O483   2.396       .  S
Zr477       O479   2.435       .  S
Zr477       O501   2.438       .  S
Zr477       O503   2.442       .  S
Zr477       O481   2.382       .  S
Zr477       O484   2.388       .  S
Zr478       O504   2.436       .  S
Zr478       O505   2.435       .  S
Zr478       O480   2.436       .  S
Zr478       O481   2.407       .  S
Zr478       O482   2.406       .  S
O479        H516   0.990       .  S
O480        H511   0.990       .  S
O480        H525   0.990       .  S
O482        H508   0.966       .  S
O483       Zr493   2.380       .  S
O484       Zr493   2.382       .  S
O484        H509   0.966       .  S
C485       C4077   1.500       .  S
C486       C3862   1.484       .  S
C487       C3778   1.492       .  S
O488        H524   0.990       .  S
O489        C491   1.284       .  A
O490        C491   1.283       .  A
C491       C3825   1.479       .  S
O492       Zr493   2.436       .  S
O492        H521   0.990       .  S
Zr493       O496   2.434       .  S
Zr493       O497   2.438       .  S
Zr493       O498   2.405       .  S
O494        C499   1.288       .  A
O495        H512   0.990       .  S
O495        H527   0.990       .  S
O496        H513   0.990       .  S
O497        H517   0.990       .  S
O497        H526   0.990       .  S
O498        C499   1.280       .  A
C499       C3806   1.491       .  S
O500        H519   0.991       .  S
O500        H523   0.990       .  S
O501        H515   0.990       .  S
O501        H522   0.990       .  S
O502        C506   1.284       .  A
O503        C506   1.287       .  A
O504        H514   0.990       .  S
O505        H518   0.990       .  S
C506       C3946   1.494       .  S
Zr529       O530   2.440       .  S
Zr529       O531   2.467       .  S
Zr529       O532   2.446       .  S
Zr529       O535   2.427       .  S
Zr529       O537   2.372       .  S
Zr529       O538   2.391       .  S
Zr529       O539   2.418       .  S
Zr529       O540   2.415       .  S
O530        H586   0.990       .  S
O530        H594   0.990       .  S
O531        C551   1.288       .  A
O532        C553   1.286       .  A
O533       Zr543   2.409       .  S
O533        C552   1.282       .  A
O534       Zr542   2.446       .  S
O534        C553   1.285       .  A
O535        C552   1.282       .  A
O536       Zr544   2.405       .  S
O536        C551   1.280       .  A
O537       Zr542   2.386       .  S
O537       Zr544   2.382       .  S
O538       Zr543   2.397       .  S
O538       Zr544   2.377       .  S
O538        H573   0.965       .  S
O539       Zr542   2.392       .  S
O539       Zr559   2.402       .  S
O539        H576   0.965       .  S
O540       Zr543   2.389       .  S
O540       Zr559   2.394       .  S
Zr541       O566   2.438       .  S
Zr541       O560   2.435       .  S
Zr541       O568   2.467       .  S
Zr541       O556   2.446       .  S
Zr541       O547   2.400       .  S
Zr541       O548   2.411       .  S
Zr541       O549   2.393       .  S
Zr541       O550   2.383       .  S
Zr542       O561   2.435       .  S
Zr542       O554   2.435       .  S
Zr542       O555   2.399       .  S
Zr542       O548   2.403       .  S
Zr542       O549   2.396       .  S
Zr543       O545   2.437       .  S
Zr543       O567   2.435       .  S
Zr543       O569   2.425       .  S
Zr543       O547   2.389       .  S
Zr543       O550   2.391       .  S
Zr544       O570   2.436       .  S
Zr544       O571   2.435       .  S
Zr544       O546   2.436       .  S
Zr544       O547   2.393       .  S
Zr544       O548   2.384       .  S
O545        H582   0.990       .  S
O546        H577   0.990       .  S
O546        H591   0.990       .  S
O548        H574   0.965       .  S
O549       Zr559   2.368       .  S
O550       Zr559   2.374       .  S
O550        H575   0.965       .  S
C551       C3797   1.498       .  S
C552       C3685   1.471       .  S
C553       C3750   1.499       .  S
O554        H590   0.990       .  S
O555        C557   1.281       .  A
O556        C557   1.286       .  A
C557       C4058   1.485       .  S
O558       Zr559   2.435       .  S
O558        H587   0.990       .  S
Zr559       O562   2.435       .  S
Zr559       O563   2.437       .  S
Zr559       O564   2.436       .  S
O560        C565   1.283       .  A
O561        H578   0.990       .  S
O561        H593   0.989       .  S
O562        H579   0.989       .  S
O563        H583   0.990       .  S
O563        H592   0.990       .  S
O564        C565   1.286       .  A
C565       C3713   1.492       .  S
O566        H585   0.990       .  S
O566        H589   0.990       .  S
O567        H581   0.990       .  S
O567        H588   0.990       .  S
O568        C572   1.291       .  A
O569        C572   1.283       .  A
O570        H580   0.990       .  S
O571        H584   0.990       .  S
C572       C4366   1.498       .  S
Zr595       O596   2.440       .  S
Zr595       O597   2.455       .  S
Zr595       O598   2.456       .  S
Zr595       O601   2.441       .  S
Zr595       O603   2.373       .  S
Zr595       O604   2.387   1_545  S
Zr595       O605   2.408       .  S
Zr595       O606   2.409       .  S
O596        H652   0.990       .  S
O596        H660   0.990       .  S
O597        C617   1.287       .  A
O598        C619   1.289       .  A
O599       Zr609   2.425       .  S
O599        C618   1.282       .  A
O600       Zr608   2.432       .  S
O600        C619   1.282       .  A
O601        C618   1.288   1_545  A
O602       Zr610   2.418       .  S
O602        C617   1.281   1_565  A
O603       Zr608   2.393       .  S
O603       Zr610   2.382   1_545  S
O604       Zr609   2.398       .  S
O604       Zr610   2.377       .  S
O604        H639   0.966       .  S
O605       Zr608   2.391       .  S
O605       Zr625   2.403       .  S
O605        H642   0.964       .  S
O606       Zr609   2.391   1_545  S
O606       Zr625   2.397       .  S
Zr607       O632   2.439       .  S
Zr607       O626   2.438   1_554  S
Zr607       O634   2.444       .  S
Zr607       O622   2.430       .  S
Zr607       O613   2.406       .  S
Zr607       O614   2.412       .  S
Zr607       O615   2.382   1_565  S
Zr607       O616   2.381       .  S
Zr608       O627   2.435       .  S
Zr608       O620   2.435       .  S
Zr608       O621   2.403       .  S
Zr608       O614   2.403   1_545  S
Zr608       O615   2.389       .  S
Zr609       O611   2.433       .  S
Zr609       O633   2.438       .  S
Zr609       O635   2.432       .  S
Zr609       O613   2.383       .  S
Zr609       O616   2.391       .  S
Zr610       O636   2.436       .  S
Zr610       O637   2.436       .  S
Zr610       O612   2.439       .  S
Zr610       O613   2.398       .  S
Zr610       O614   2.392       .  S
O611        H648   0.990       .  S
O612        H643   0.990       .  S
O612        H657   0.990       .  S
O614        H640   0.966       .  S
O615       Zr625   2.370       .  S
O616       Zr625   2.374   1_565  S
O616        H641   0.966       .  S
C617       C3582   1.486       .  S
C618       C3601   1.494   1_565  S
C619       C3741   1.501       .  S
O620        H656   0.990       .  S
O621        C623   1.282       .  A
O622        C623   1.283   1_565  A
C623       C3638   1.470   1_554  S
O624       Zr625   2.434       .  S
O624        H653   0.990       .  S
Zr625       O628   2.435       .  S
Zr625       O629   2.437       .  S
Zr625       O630   2.444       .  S
O626        C631   1.287   1_565  A
O627        H644   0.990       .  S
O627        H659   0.990       .  S
O628        H645   0.990       .  S
O629        H649   0.990       .  S
O629        H658   0.990       .  S
O630        C631   1.285   1_554  A
C631       C3657   1.502       .  S
O632        H651   0.990       .  S
O632        H655   0.990       .  S
O633        H647   0.990       .  S
O633        H654   0.990       .  S
O634        C638   1.286       .  A
O635        C638   1.286       .  A
O636        H646   0.990       .  S
O637        H650   0.990       .  S
C638       C4254   1.496       .  S
Zr661       O662   2.435       .  S
Zr661       O663   2.463       .  S
Zr661       O664   2.457       .  S
Zr661       O667   2.437       .  S
Zr661       O669   2.377       .  S
Zr661       O670   2.389       .  S
Zr661       O671   2.416       .  S
Zr661       O672   2.403       .  S
O662        H718   0.989       .  S
O662        H726   0.990       .  S
O663        C683   1.287       .  A
O664        C685   1.287       .  A
O665       Zr675   2.406       .  S
O665        C684   1.279       .  A
O666       Zr674   2.440       .  S
O666        C685   1.287       .  A
O667        C684   1.286       .  A
O668       Zr676   2.404       .  S
O668        C683   1.279       .  A
O669       Zr674   2.392       .  S
O669       Zr676   2.384       .  S
O670       Zr675   2.400       .  S
O670       Zr676   2.376       .  S
O670        H705   0.963       .  S
O671       Zr674   2.394       .  S
O671       Zr691   2.404       .  S
O671        H708   0.963       .  S
O672       Zr675   2.385       .  S
O672       Zr691   2.384       .  S
Zr673       O698   2.442       .  S
Zr673       O692   2.445       .  S
Zr673       O700   2.445       .  S
Zr673       O688   2.428       .  S
Zr673       O679   2.401       .  S
Zr673       O680   2.409       .  S
Zr673       O681   2.385       .  S
Zr673       O682   2.376       .  S
Zr674       O693   2.434       .  S
Zr674       O686   2.433       .  S
Zr674       O687   2.416       .  S
Zr674       O680   2.407       .  S
Zr674       O681   2.398       .  S
Zr675       O677   2.435       .  S
Zr675       O699   2.437       .  S
Zr675       O701   2.416       .  S
Zr675       O679   2.381       .  S
Zr675       O682   2.390       .  S
Zr676       O702   2.437       .  S
Zr676       O703   2.436       .  S
Zr676       O678   2.440       .  S
Zr676       O679   2.392       .  S
Zr676       O680   2.381       .  S
O677        H714   0.990       .  S
O678        H709   0.990       .  S
O678        H723   0.989       .  S
O680        H706   0.964       .  S
O681       Zr691   2.380       .  S
O682       Zr691   2.378       .  S
O682        H707   0.967       .  S
C683       C3498   1.498       .  S
C684       C3853   1.479       .  S
C685       C3545   1.504       .  S
O686        H722   0.990       .  S
O687        C689   1.282       .  A
O688        C689   1.282       .  A
C689       C3526   1.459       .  S
O690       Zr691   2.434       .  S
O690        H719   0.990       .  S
Zr691       O694   2.435       .  S
Zr691       O695   2.439       .  S
Zr691       O696   2.426       .  S
O692        C697   1.288       .  A
O693        H710   0.990       .  S
O693        H725   0.990       .  S
O694        H711   0.990       .  S
O695        H715   0.990       .  S
O695        H724   0.990       .  S
O696        C697   1.281       .  A
C697       C3722   1.500       .  S
O698        H717   0.991       .  S
O698        H721   0.990       .  S
O699        H713   0.990       .  S
O699        H720   0.990       .  S
O700        C704   1.285       .  A
O701        C704   1.283       .  A
O702        H712   0.990       .  S
O703        H716   0.990       .  S
C704       C4637   1.480       .  S
Zr727       O728   2.433       .  S
Zr727       O729   2.447       .  S
Zr727       O730   2.449       .  S
Zr727       O733   2.412       .  S
Zr727       O735   2.373       .  S
Zr727       O736   2.387   1_545  S
Zr727       O737   2.406       .  S
Zr727       O738   2.412       .  S
O728        H784   0.990       .  S
O728        H792   0.990       .  S
O729        C749   1.287   1_545  A
O730        C751   1.284       .  A
O731       Zr741   2.425       .  S
O731        C750   1.285   1_565  A
O732       Zr740   2.447       .  S
O732        C751   1.288       .  A
O733        C750   1.278       .  A
O734       Zr742   2.416       .  S
O734        C749   1.279       .  A
O735       Zr740   2.394       .  S
O735       Zr742   2.390   1_545  S
O736       Zr741   2.395       .  S
O736       Zr742   2.376       .  S
O736        H771   0.964       .  S
O737       Zr740   2.386       .  S
O737       Zr757   2.402       .  S
O737        H774   0.966       .  S
O738       Zr741   2.385   1_545  S
O738       Zr757   2.394       .  S
Zr739       O764   2.438       .  S
Zr739       O758   2.437       .  S
Zr739       O766   2.452       .  S
Zr739       O754   2.416       .  S
Zr739       O745   2.403       .  S
Zr739       O746   2.409       .  S
Zr739       O747   2.383   1_565  S
Zr739       O748   2.379       .  S
Zr740       O759   2.437       .  S
Zr740       O752   2.435       .  S
Zr740       O753   2.415       .  S
Zr740       O746   2.407   1_545  S
Zr740       O747   2.395       .  S
Zr741       O743   2.434       .  S
Zr741       O765   2.438       .  S
Zr741       O767   2.433       .  S
Zr741       O745   2.391       .  S
Zr741       O748   2.389       .  S
Zr742       O768   2.435       .  S
Zr742       O769   2.435       .  S
Zr742       O744   2.437       .  S
Zr742       O745   2.395       .  S
Zr742       O746   2.394       .  S
O743        H780   0.990       .  S
O744        H775   0.990       .  S
O744        H789   0.990       .  S
O746        H772   0.966       .  S
O747       Zr757   2.365       .  S
O748       Zr757   2.375   1_565  S
O748        H773   0.967       .  S
C749       C3414   1.482       .  S
C750       C3461   1.477       .  S
C751       C3554   1.503       .  S
O752        H788   0.990       .  S
O753        C755   1.282       .  A
O754        C755   1.283   1_565  A
C755       C3433   1.468       .  S
O756       Zr757   2.435       .  S
O756        H785   0.990       .  S
Zr757       O760   2.435       .  S
Zr757       O761   2.439       .  S
Zr757       O762   2.440       .  S
O758        C763   1.284   1_565  A
O759        H776   0.990       .  S
O759        H791   0.990       .  S
O760        H777   0.990       .  S
O761        H781   0.990       .  S
O761        H790   0.990       .  S
O762        C763   1.286       .  A
C763       C3666   1.493       .  S
O764        H783   0.990       .  S
O764        H787   0.990       .  S
O765        H779   0.990       .  S
O765        H786   0.990       .  S
O766        C770   1.287       .  A
O767        C770   1.286       .  A
O768        H778   0.990       .  S
O769        H782   0.990       .  S
C770       C4506   1.493       .  S
Zr793       O794   2.436       .  S
Zr793       O795   2.446       .  S
Zr793       O796   2.469       .  S
Zr793       O799   2.445       .  S
Zr793       O801   2.384       .  S
Zr793       O802   2.393   1_545  S
Zr793       O803   2.415       .  S
Zr793       O804   2.406       .  S
O794        H850   0.990       .  S
O794        H858   0.990       .  S
O795        C815   1.285       .  A
O796        C817   1.287       .  A
O797       Zr807   2.409       .  S
O797        C816   1.283   1_565  A
O798       Zr806   2.400       .  S
O798        C817   1.280       .  A
O799        C816   1.286       .  A
O800       Zr808   2.424       .  S
O800        C815   1.284   1_565  A
O801       Zr806   2.388       .  S
O801       Zr808   2.377   1_545  S
O802       Zr807   2.391       .  S
O802       Zr808   2.376       .  S
O802        H837   0.966       .  S
O803       Zr806   2.396       .  S
O803       Zr823   2.401       .  S
O803        H840   0.965       .  S
O804       Zr807   2.395   1_545  S
O804       Zr823   2.394       .  S
Zr805       O830   2.440       .  S
Zr805       O824   2.463       .  S
Zr805       O832   2.433       .  S
Zr805       O820   2.461       .  S
Zr805       O811   2.407       .  S
Zr805       O812   2.412       .  S
Zr805       O813   2.378   1_565  S
Zr805       O814   2.383       .  S
Zr806       O825   2.437       .  S
Zr806       O818   2.436       .  S
Zr806       O819   2.405       .  S
Zr806       O812   2.386   1_545  S
Zr806       O813   2.391       .  S
Zr807       O809   2.436       .  S
Zr807       O831   2.436       .  S
Zr807       O833   2.432       .  S
Zr807       O811   2.387       .  S
Zr807       O814   2.387       .  S
Zr808       O834   2.435       .  S
Zr808       O835   2.436       .  S
Zr808       O810   2.439       .  S
Zr808       O811   2.389       .  S
Zr808       O812   2.394       .  S
O809        H846   0.990       .  S
O810        H841   0.990   1_565  S
O810        H855   0.990       .  S
O812        H838   0.965       .  S
O813       Zr823   2.375       .  S
O814       Zr823   2.382   1_565  S
O814        H839   0.965       .  S
C815       C3358   1.491       .  S
C816       C3610   1.488       .  S
C817       C3293   1.498       .  S
O818        H854   0.990       .  S
O819        C821   1.281       .  A
O820        C821   1.288   1_565  A
C821       C3321   1.486       .  S
O822       Zr823   2.436       .  S
O822        H851   0.990       .  S
Zr823       O826   2.436       .  S
Zr823       O827   2.435       .  S
Zr823       O828   2.416       .  S
O824        C829   1.289   1_565  A
O825        H842   0.990       .  S
O825        H857   0.990       .  S
O826        H843   0.990       .  S
O827        H847   0.990       .  S
O827        H856   0.990       .  S
O828        C829   1.280       .  A
C829       C3405   1.493       .  S
O830        H849   0.990       .  S
O830        H853   0.991       .  S
O831        H845   0.990       .  S
O831        H852   0.990       .  S
O832        C836   1.285       .  A
O833        C836   1.283       .  A
O834        H844   0.990       .  S
O835        H848   0.991       .  S
C836       C3377   1.486       .  S
Zr859       O860   2.437       .  S
Zr859       O861   2.448       .  S
Zr859       O862   2.456       .  S
Zr859       O865   2.423       .  S
Zr859       O867   2.374       .  S
Zr859       O868   2.390       .  S
Zr859       O869   2.405       .  S
Zr859       O870   2.406       .  S
O860        H916   0.990       .  S
O860        H924   0.990       .  S
O861        C881   1.289       .  A
O862        C883   1.286       .  A
O863       Zr873   2.422       .  S
O863        C882   1.286       .  A
O864       Zr872   2.411       .  S
O864        C883   1.282       .  A
O865        C882   1.282       .  A
O866       Zr874   2.426       .  S
O866        C881   1.281       .  A
O867       Zr872   2.387       .  S
O867       Zr874   2.382       .  S
O868       Zr873   2.391       .  S
O868       Zr874   2.371       .  S
O868        H903   0.965       .  S
O869       Zr872   2.387       .  S
O869       Zr889   2.397       .  S
O869        H906   0.965       .  S
O870       Zr873   2.390       .  S
O870       Zr889   2.388       .  S
Zr871       O896   2.438       .  S
Zr871       O890   2.444       .  S
Zr871       O898   2.432       .  S
Zr871       O886   2.429       .  S
Zr871       O877   2.412       .  S
Zr871       O878   2.410       .  S
Zr871       O879   2.381       .  S
Zr871       O880   2.381       .  S
Zr872       O891   2.435       .  S
Zr872       O884   2.436       .  S
Zr872       O885   2.409       .  S
Zr872       O878   2.389       .  S
Zr872       O879   2.391       .  S
Zr873       O875   2.435       .  S
Zr873       O897   2.439       .  S
Zr873       O899   2.438       .  S
Zr873       O877   2.389       .  S
Zr873       O880   2.389       .  S
Zr874       O900   2.436       .  S
Zr874       O901   2.436       .  S
Zr874       O876   2.437       .  S
Zr874       O877   2.400       .  S
Zr874       O878   2.397       .  S
O875        H912   0.990       .  S
O876        H907   0.990       .  S
O876        H921   0.990       .  S
O878        H904   0.965       .  S
O879       Zr889   2.376       .  S
O880       Zr889   2.379       .  S
O880        H905   0.966       .  S
C881       C3265   1.497       .  S
C882       C4562   1.485       .  S
C883       C3209   1.487       .  S
O884        H920   0.990       .  S
O885        C887   1.282       .  A
O886        C887   1.282       .  A
C887       C3237   1.471       .  S
O888       Zr889   2.435       .  S
O888        H917   0.990       .  S
Zr889       O892   2.434       .  S
Zr889       O893   2.438       .  S
Zr889       O894   2.417       .  S
O890        C895   1.284       .  A
O891        H908   0.990       .  S
O891        H923   0.990       .  S
O892        H909   0.990       .  S
O893        H913   0.990       .  S
O893        H922   0.990       .  S
O894        C895   1.282       .  A
C895       C4273   1.482       .  S
O896        H915   0.990       .  S
O896        H919   0.990       .  S
O897        H911   0.990       .  S
O897        H918   0.990       .  S
O898        C902   1.282       .  A
O899        C902   1.287       .  A
O900        H910   0.990       .  S
O901        H914   0.990       .  S
C902       C3386   1.487       .  S
Zr925       O926   2.439   1_556  S
Zr925       O927   2.439   1_556  S
Zr925       O928   2.445   1_556  S
Zr925       O931   2.423   1_556  S
Zr925       O933   2.372       .  S
Zr925       O934   2.384   1_545  S
Zr925       O935   2.404       .  S
Zr925       O936   2.406       .  S
O926        H982   0.990       .  S
O926        H990   0.990       .  S
O927        C947   1.284       .  A
O928        C949   1.287   1_554  A
O929       Zr939   2.413       .  S
O929        C948   1.281   1_566  A
O930       Zr938   2.405       .  S
O930        C949   1.279       .  A
O931        C948   1.285       .  A
O932       Zr940   2.437   1_554  S
O932        C947   1.286   1_565  A
O933       Zr938   2.384       .  S
O933       Zr940   2.369   1_545  S
O934       Zr939   2.393       .  S
O934       Zr940   2.359       .  S
O934        H969   0.966   1_556  S
O935       Zr938   2.388       .  S
O935       Zr955   2.399       .  S
O935        H972   0.966       .  S
O936       Zr939   2.396   1_545  S
O936       Zr955   2.393       .  S
Zr937       O962   2.438       .  S
Zr937       O956   2.461       .  S
Zr937       O964   2.447       .  S
Zr937       O952   2.443       .  S
Zr937       O943   2.415       .  S
Zr937       O944   2.415       .  S
Zr937       O945   2.380   1_565  S
Zr937       O946   2.383       .  S
Zr938       O957   2.436       .  S
Zr938       O950   2.427       .  S
Zr938       O951   2.399       .  S
Zr938       O944   2.395   1_545  S
Zr938       O945   2.391       .  S
Zr939       O941   2.434       .  S
Zr939       O963   2.441       .  S
Zr939       O965   2.422       .  S
Zr939       O943   2.392       .  S
Zr939       O946   2.391       .  S
Zr940       O966   2.435   1_556  S
Zr940       O967   2.434       .  S
Zr940       O942   2.439       .  S
Zr940       O943   2.403       .  S
Zr940       O944   2.392       .  S
O941        H978   0.990       .  S
O942        H973   0.990   1_556  S
O942        H987   0.990       .  S
O944        H970   0.964       .  S
O945       Zr955   2.382       .  S
O946       Zr955   2.380   1_565  S
O946        H971   0.966       .  S
C947       C3349   1.500       .  S
C948       C3153   1.467       .  S
C949       C3097   1.475   1_556  S
O950        H986   0.990       .  S
O951        C953   1.278       .  A
O952        C953   1.286   1_565  A
C953       C3442   1.467       .  S
O954       Zr955   2.436       .  S
O954        H983   0.990       .  S
Zr955       O958   2.435       .  S
Zr955       O959   2.439       .  S
Zr955       O960   2.416       .  S
O956        C961   1.286   1_565  A
O957        H974   0.990       .  S
O957        H989   0.990       .  S
O958        H975   0.990       .  S
O959        H979   0.990       .  S
O959        H988   0.990       .  S
O960        C961   1.282       .  A
C961       C3125   1.496       .  S
O962        H981   0.990       .  S
O962        H985   0.990       .  S
O963        H977   0.990   1_556  S
O963        H984   0.990       .  S
O964        C968   1.285       .  A
O965        C968   1.283       .  A
O966        H976   0.990       .  S
O967        H980   0.990       .  S
C968       C3181   1.489       .  S
Zr991       O992   2.439       .  S
Zr991       O993   2.433       .  S
Zr991       O994   2.478       .  S
Zr991       O997   2.429       .  S
Zr991       O999   2.371       .  S
Zr991      O1000   2.394       .  S
Zr991      O1001   2.398       .  S
Zr991      O1002   2.406       .  S
O992       H1048   0.990       .  S
O992       H1056   0.990       .  S
O993       C1013   1.285       .  A
O994       C1015   1.293       .  A
O995      Zr1005   2.409       .  S
O995       C1014   1.283       .  A
O996      Zr1004   2.406       .  S
O996       C1015   1.279       .  A
O997       C1014   1.284       .  A
O998      Zr1006   2.436       .  S
O998       C1013   1.284       .  A
O999      Zr1004   2.389       .  S
O999      Zr1006   2.376       .  S
O1000     Zr1005   2.395       .  S
O1000     Zr1006   2.370       .  S
O1000      H1035   0.965       .  S
O1001     Zr1004   2.396       .  S
O1001     Zr1021   2.400       .  S
O1001      H1038   0.966       .  S
O1002     Zr1005   2.401       .  S
O1002     Zr1021   2.388       .  S
Zr1003     O1028   2.441       .  S
Zr1003     O1022   2.457       .  S
Zr1003     O1030   2.433       .  S
Zr1003     O1018   2.432       .  S
Zr1003     O1009   2.408       .  S
Zr1003     O1010   2.409       .  S
Zr1003     O1011   2.373       .  S
Zr1003     O1012   2.375       .  S
Zr1004     O1023   2.435       .  S
Zr1004     O1016   2.435       .  S
Zr1004     O1017   2.408       .  S
Zr1004     O1010   2.391       .  S
Zr1004     O1011   2.395       .  S
Zr1005     O1007   2.438       .  S
Zr1005     O1029   2.436       .  S
Zr1005     O1031   2.449       .  S
Zr1005     O1009   2.386       .  S
Zr1005     O1012   2.392       .  S
Zr1006     O1032   2.436       .  S
Zr1006     O1033   2.435       .  S
Zr1006     O1008   2.435       .  S
Zr1006     O1009   2.403       .  S
Zr1006     O1010   2.397       .  S
O1007      H1044   0.990       .  S
O1008      H1039   0.990       .  S
O1008      H1053   0.990       .  S
O1010      H1036   0.966       .  S
O1011     Zr1021   2.375       .  S
O1012     Zr1021   2.383       .  S
O1012      H1037   0.966       .  S
C1013      C3274   1.486       .  S
C1014      C3078   1.473       .  S
C1015      C3013   1.497       .  S
O1016      H1052   0.990       .  S
O1017      C1019   1.279       .  A
O1018      C1019   1.285       .  A
C1019      C4310   1.476       .  S
O1020     Zr1021   2.434       .  S
O1020      H1049   0.990       .  S
Zr1021     O1024   2.437       .  S
Zr1021     O1025   2.438       .  S
Zr1021     O1026   2.416       .  S
O1022      C1027   1.289       .  A
O1023      H1040   0.990       .  S
O1023      H1055   0.990       .  S
O1024      H1041   0.989       .  S
O1025      H1045   0.990       .  S
O1025      H1054   0.990       .  S
O1026      C1027   1.279       .  A
C1027      C3041   1.498       .  S
O1028      H1047   0.990       .  S
O1028      H1051   0.991       .  S
O1029      H1043   0.990       .  S
O1029      H1050   0.990       .  S
O1030      C1034   1.285       .  A
O1031      C1034   1.285       .  A
O1032      H1042   0.990       .  S
O1033      H1046   0.990       .  S
C1034      C3190   1.500       .  S
Zr1057     O1058   2.438       .  S
Zr1057     O1059   2.441       .  S
Zr1057     O1060   2.449       .  S
Zr1057     O1063   2.412       .  S
Zr1057     O1065   2.376       .  S
Zr1057     O1066   2.382       .  S
Zr1057     O1067   2.408       .  S
Zr1057     O1068   2.405       .  S
O1058      H1114   0.990       .  S
O1058      H1122   0.990       .  S
O1059      C1079   1.284       .  A
O1060      C1081   1.286       .  A
O1061     Zr1071   2.397       .  S
O1061      C1080   1.277       .  A
O1062     Zr1070   2.450       .  S
O1062      C1081   1.289       .  A
O1063      C1080   1.282       .  A
O1064     Zr1072   2.422       .  S
O1064      C1079   1.282       .  A
O1065     Zr1070   2.382       .  S
O1065     Zr1072   2.380       .  S
O1066     Zr1071   2.385       .  S
O1066     Zr1072   2.371       .  S
O1066      H1101   0.967       .  S
O1067     Zr1070   2.390       .  S
O1067     Zr1087   2.403       .  S
O1067      H1104   0.966       .  S
O1068     Zr1071   2.392       .  S
O1068     Zr1087   2.400       .  S
Zr1069     O1094   2.438       .  S
Zr1069     O1088   2.428       .  S
Zr1069     O1096   2.466       .  S
Zr1069     O1084   2.428       .  S
Zr1069     O1075   2.399       .  S
Zr1069     O1076   2.415       .  S
Zr1069     O1077   2.389       .  S
Zr1069     O1078   2.374       .  S
Zr1070     O1089   2.439       .  S
Zr1070     O1082   2.435       .  S
Zr1070     O1083   2.417       .  S
Zr1070     O1076   2.398       .  S
Zr1070     O1077   2.393       .  S
Zr1071     O1073   2.433       .  S
Zr1071     O1095   2.439       .  S
Zr1071     O1097   2.404       .  S
Zr1071     O1075   2.383       .  S
Zr1071     O1078   2.390       .  S
Zr1072     O1098   2.437       .  S
Zr1072     O1099   2.435       .  S
Zr1072     O1074   2.437       .  S
Zr1072     O1075   2.401       .  S
Zr1072     O1076   2.389       .  S
O1073      H1110   0.989       .  S
O1074      H1105   0.990       .  S
O1074      H1119   0.990       .  S
O1076      H1102   0.966       .  S
O1077     Zr1087   2.368       .  S
O1078     Zr1087   2.374       .  S
O1078      H1103   0.965       .  S
C1079      C3050   1.478       .  S
C1080      C2938   1.466       .  S
C1081      C2985   1.502       .  S
O1082      H1118   0.990       .  S
O1083      C1085   1.285       .  A
O1084      C1085   1.283       .  A
C1085      C3246   1.483       .  S
O1086     Zr1087   2.434       .  S
O1086      H1115   0.990       .  S
Zr1087     O1090   2.435       .  S
Zr1087     O1091   2.438       .  S
Zr1087     O1092   2.444       .  S
O1088      C1093   1.285       .  A
O1089      H1106   0.990       .  S
O1089      H1121   0.990       .  S
O1090      H1107   0.990       .  S
O1091      H1111   0.990       .  S
O1091      H1120   0.990       .  S
O1092      C1093   1.285       .  A
C1093      C2957   1.497       .  S
O1094      H1113   0.990       .  S
O1094      H1117   0.990       .  S
O1095      H1109   0.990       .  S
O1095      H1116   0.990       .  S
O1096      C1100   1.291       .  A
O1097      C1100   1.278       .  A
O1098      H1108   0.990       .  S
O1099      H1112   0.990       .  S
C1100      C2901   1.494       .  S
Zr1123     O1124   2.427       .  S
Zr1123     O1125   2.464       .  S
Zr1123     O1126   2.438       .  S
Zr1123     O1129   2.420       .  S
Zr1123     O1131   2.374       .  S
Zr1123     O1132   2.387       .  S
Zr1123     O1133   2.413       .  S
Zr1123     O1134   2.412       .  S
O1124      H1180   0.989       .  S
O1124      H1188   0.989       .  S
O1125      C1145   1.287       .  A
O1126      C1147   1.282       .  A
O1127     Zr1137   2.407       .  S
O1127      C1146   1.281       .  A
O1128     Zr1136   2.455       .  S
O1128      C1147   1.289       .  A
O1129      C1146   1.280       .  A
O1130     Zr1138   2.411       .  S
O1130      C1145   1.281       .  A
O1131     Zr1136   2.387       .  S
O1131     Zr1138   2.384       .  S
O1132     Zr1137   2.395       .  S
O1132     Zr1138   2.375       .  S
O1132      H1167   0.965       .  S
O1133     Zr1136   2.389       .  S
O1133     Zr1153   2.407       .  S
O1133      H1170   0.965       .  S
O1134     Zr1137   2.391       .  S
O1134     Zr1153   2.403       .  S
Zr1135     O1160   2.439       .  S
Zr1135     O1154   2.436   1_554  S
Zr1135     O1162   2.476       .  S
Zr1135     O1150   2.423       .  S
Zr1135     O1141   2.398       .  S
Zr1135     O1142   2.415       .  S
Zr1135     O1143   2.388       .  S
Zr1135     O1144   2.371       .  S
Zr1136     O1155   2.435       .  S
Zr1136     O1148   2.436       .  S
Zr1136     O1149   2.402       .  S
Zr1136     O1142   2.409       .  S
Zr1136     O1143   2.399       .  S
Zr1137     O1139   2.434       .  S
Zr1137     O1161   2.438       .  S
Zr1137     O1163   2.428       .  S
Zr1137     O1141   2.386       .  S
Zr1137     O1144   2.391       .  S
Zr1138     O1164   2.435       .  S
Zr1138     O1165   2.436       .  S
Zr1138     O1140   2.438       .  S
Zr1138     O1141   2.400       .  S
Zr1138     O1142   2.383       .  S
O1139      H1176   0.990       .  S
O1140      H1171   0.991       .  S
O1140      H1185   0.990       .  S
O1142      H1168   0.965       .  S
O1143     Zr1153   2.361       .  S
O1144     Zr1153   2.374       .  S
O1144      H1169   0.967       .  S
C1145      C2817   1.497       .  S
C1146      C4170   1.467       .  S
C1147      C2994   1.504       .  S
O1148      H1184   0.990       .  S
O1149      C1151   1.280       .  A
O1150      C1151   1.286       .  A
C1151      C2854   1.470   1_554  S
O1152     Zr1153   2.433       .  S
O1152      H1181   0.990       .  S
Zr1153     O1156   2.435       .  S
Zr1153     O1157   2.437       .  S
Zr1153     O1158   2.457       .  S
O1154      C1159   1.286       .  A
O1155      H1172   0.990       .  S
O1155      H1187   0.990       .  S
O1156      H1173   0.990       .  S
O1157      H1177   0.990       .  S
O1157      H1186   0.990       .  S
O1158      C1159   1.287   1_554  A
C1159      C2882   1.496       .  S
O1160      H1179   0.990       .  S
O1160      H1183   0.990       .  S
O1161      H1175   0.990       .  S
O1161      H1182   0.990       .  S
O1162      C1166   1.293       .  A
O1163      C1166   1.283       .  A
O1164      H1174   0.990       .  S
O1165      H1178   0.990       .  S
C1166      C2789   1.501       .  S
Zr1189     O1190   2.440       .  S
Zr1189     O1191   2.447       .  S
Zr1189     O1192   2.448       .  S
Zr1189     O1195   2.438       .  S
Zr1189     O1197   2.376       .  S
Zr1189     O1198   2.387       .  S
Zr1189     O1199   2.409       .  S
Zr1189     O1200   2.407       .  S
O1190      H1246   0.990       .  S
O1190      H1254   0.990       .  S
O1191      C1211   1.285       .  A
O1192      C1213   1.288       .  A
O1193     Zr1203   2.410       .  S
O1193      C1212   1.280       .  A
O1194     Zr1202   2.425       .  S
O1194      C1213   1.281       .  A
O1195      C1212   1.287       .  A
O1196     Zr1204   2.412       .  S
O1196      C1211   1.281       .  A
O1197     Zr1202   2.391       .  S
O1197     Zr1204   2.384       .  S
O1198     Zr1203   2.396       .  S
O1198     Zr1204   2.377       .  S
O1198      H1233   0.968       .  S
O1199     Zr1202   2.394       .  S
O1199     Zr1219   2.395       .  S
O1199      H1236   0.964       .  S
O1200     Zr1203   2.389       .  S
O1200     Zr1219   2.398       .  S
Zr1201     O1226   2.438       .  S
Zr1201     O1220   2.433       .  S
Zr1201     O1228   2.447       .  S
Zr1201     O1216   2.420       .  S
Zr1201     O1207   2.401       .  S
Zr1201     O1208   2.406       .  S
Zr1201     O1209   2.382       .  S
Zr1201     O1210   2.376       .  S
Zr1202     O1221   2.434       .  S
Zr1202     O1214   2.436   1_655  S
Zr1202     O1215   2.412   1_655  S
Zr1202     O1208   2.394       .  S
Zr1202     O1209   2.393       .  S
Zr1203     O1205   2.432       .  S
Zr1203     O1227   2.437       .  S
Zr1203     O1229   2.424       .  S
Zr1203     O1207   2.390       .  S
Zr1203     O1210   2.390       .  S
Zr1204     O1230   2.436       .  S
Zr1204     O1231   2.438   1_655  S
Zr1204     O1206   2.437   1_655  S
Zr1204     O1207   2.396       .  S
Zr1204     O1208   2.388       .  S
O1205      H1242   0.990       .  S
O1206      H1237   0.991       .  S
O1206      H1251   0.990       .  S
O1208      H1234   0.966   1_655  S
O1209     Zr1219   2.369       .  S
O1210     Zr1219   2.370       .  S
O1210      H1235   0.966       .  S
C1211      C4142   1.486   1_655  S
C1212      C2733   1.487       .  S
C1213      C2770   1.494       .  S
O1214      H1250   0.990       .  S
O1215      C1217   1.280       .  A
O1216      C1217   1.284   1_655  A
C1217      C3918   1.466       .  S
O1218     Zr1219   2.435       .  S
O1218      H1247   0.991       .  S
Zr1219     O1222   2.434       .  S
Zr1219     O1223   2.438       .  S
Zr1219     O1224   2.450       .  S
O1220      C1225   1.284       .  A
O1221      H1238   0.990       .  S
O1221      H1253   0.990   1_655  S
O1222      H1239   0.989       .  S
O1223      H1243   0.990       .  S
O1223      H1252   0.990       .  S
O1224      C1225   1.289       .  A
C1225      C2873   1.500       .  S
O1226      H1245   0.990       .  S
O1226      H1249   0.990       .  S
O1227      H1241   0.990       .  S
O1227      H1248   0.990       .  S
O1228      C1232   1.288       .  A
O1229      C1232   1.283       .  A
O1230      H1240   0.990       .  S
O1231      H1244   0.990       .  S
C1232      C2705   1.486       .  S
Zr1255     O1256   2.442       .  S
Zr1255     O1257   2.462       .  S
Zr1255     O1258   2.445       .  S
Zr1255     O1261   2.436       .  S
Zr1255     O1263   2.368       .  S
Zr1255     O1264   2.383       .  S
Zr1255     O1265   2.412       .  S
Zr1255     O1266   2.404       .  S
O1256      H1312   0.990       .  S
O1256      H1320   0.990       .  S
O1257      C1277   1.288       .  A
O1258      C1279   1.287       .  A
O1259     Zr1269   2.410       .  S
O1259      C1278   1.279       .  A
O1260     Zr1268   2.431       .  S
O1260      C1279   1.282       .  A
O1261      C1278   1.287       .  A
O1262     Zr1270   2.420   1_455  S
O1262      C1277   1.280   1_455  A
O1263     Zr1268   2.387       .  S
O1263     Zr1270   2.377       .  S
O1264     Zr1269   2.397       .  S
O1264     Zr1270   2.379       .  S
O1264      H1299   0.965       .  S
O1265     Zr1268   2.391       .  S
O1265     Zr1285   2.399       .  S
O1265      H1302   0.965       .  S
O1266     Zr1269   2.385       .  S
O1266     Zr1285   2.390       .  S
Zr1267     O1292   2.439       .  S
Zr1267     O1286   2.451       .  S
Zr1267     O1294   2.473       .  S
Zr1267     O1282   2.460   1_655  S
Zr1267     O1273   2.408       .  S
Zr1267     O1274   2.413       .  S
Zr1267     O1275   2.390       .  S
Zr1267     O1276   2.385       .  S
Zr1268     O1287   2.435       .  S
Zr1268     O1280   2.432   1_655  S
Zr1268     O1281   2.397   1_655  S
Zr1268     O1274   2.412       .  S
Zr1268     O1275   2.400       .  S
Zr1269     O1271   2.436       .  S
Zr1269     O1293   2.437       .  S
Zr1269     O1295   2.406       .  S
Zr1269     O1273   2.388       .  S
Zr1269     O1276   2.391       .  S
Zr1270     O1296   2.436       .  S
Zr1270     O1297   2.435   1_655  S
Zr1270     O1272   2.436   1_655  S
Zr1270     O1273   2.400       .  S
Zr1270     O1274   2.384       .  S
O1271      H1308   0.990       .  S
O1272      H1303   0.990       .  S
O1272      H1317   0.990       .  S
O1274      H1300   0.965   1_655  S
O1275     Zr1285   2.376       .  S
O1276     Zr1285   2.377       .  S
O1276      H1301   0.966       .  S
C1277      C2658   1.486   1_655  S
C1278      C3069   1.483       .  S
C1279      C2761   1.493       .  S
O1280      H1316   0.990       .  S
O1281      C1283   1.279       .  A
O1282      C1283   1.289       .  A
C1283      C2677   1.469       .  S
O1284     Zr1285   2.440       .  S
O1284      H1313   0.991       .  S
Zr1285     O1288   2.438       .  S
Zr1285     O1289   2.439       .  S
Zr1285     O1290   2.426       .  S
O1286      C1291   1.286       .  A
O1287      H1304   0.990   1_655  S
O1287      H1319   0.990       .  S
O1288      H1305   0.990       .  S
O1289      H1309   0.990       .  S
O1289      H1318   0.990       .  S
O1290      C1291   1.283       .  A
C1291      C2966   1.491       .  S
O1292      H1311   0.990   1_655  S
O1292      H1315   0.990       .  S
O1293      H1307   0.990       .  S
O1293      H1314   0.990       .  S
O1294      C1298   1.290       .  A
O1295      C1298   1.281       .  A
O1296      H1306   0.990       .  S
O1297      H1310   0.990       .  S
C1298      C2621   1.498       .  S
Zr1321     O1322   2.439       .  S
Zr1321     O1323   2.431       .  S
Zr1321     O1324   2.456       .  S
Zr1321     O1327   2.439       .  S
Zr1321     O1329   2.376       .  S
Zr1321     O1330   2.393       .  S
Zr1321     O1331   2.405       .  S
Zr1321     O1332   2.399       .  S
O1322      H1378   0.990       .  S
O1322      H1386   0.990       .  S
O1323      C1343   1.281       .  A
O1324      C1345   1.288       .  A
O1325     Zr1335   2.418       .  S
O1325      C1344   1.284       .  A
O1326     Zr1334   2.400       .  S
O1326      C1345   1.278       .  A
O1327      C1344   1.285       .  A
O1328     Zr1336   2.442       .  S
O1328      C1343   1.287       .  A
O1329     Zr1334   2.397       .  S
O1329     Zr1336   2.372       .  S
O1330     Zr1335   2.404       .  S
O1330     Zr1336   2.371       .  S
O1330      H1365   0.964       .  S
O1331     Zr1334   2.398       .  S
O1331     Zr1351   2.395       .  S
O1331      H1368   0.965       .  S
O1332     Zr1335   2.396       .  S
O1332     Zr1351   2.382       .  S
Zr1333     O1358   2.442       .  S
Zr1333     O1352   2.465       .  S
Zr1333     O1360   2.444       .  S
Zr1333     O1348   2.443       .  S
Zr1333     O1339   2.411       .  S
Zr1333     O1340   2.418       .  S
Zr1333     O1341   2.375       .  S
Zr1333     O1342   2.382       .  S
Zr1334     O1353   2.436       .  S
Zr1334     O1346   2.435       .  S
Zr1334     O1347   2.414       .  S
Zr1334     O1340   2.392       .  S
Zr1334     O1341   2.391       .  S
Zr1335     O1337   2.439       .  S
Zr1335     O1359   2.438       .  S
Zr1335     O1361   2.453       .  S
Zr1335     O1339   2.389       .  S
Zr1335     O1342   2.396       .  S
Zr1336     O1362   2.435       .  S
Zr1336     O1363   2.436       .  S
Zr1336     O1338   2.437       .  S
Zr1336     O1339   2.404       .  S
Zr1336     O1340   2.402       .  S
O1337      H1374   0.990       .  S
O1338      H1369   0.990       .  S
O1338      H1383   0.990       .  S
O1340      H1366   0.965       .  S
O1341     Zr1351   2.377       .  S
O1342     Zr1351   2.390       .  S
O1342      H1367   0.966       .  S
C1343      C2574   1.500       .  S
C1344      C2742   1.479       .  S
C1345      C3218   1.485       .  S
O1346      H1382   0.990       .  S
O1347      C1349   1.279       .  A
O1348      C1349   1.286       .  A
C1349      C4450   1.470       .  S
O1350     Zr1351   2.436       .  S
O1350      H1379   0.990       .  S
Zr1351     O1354   2.436       .  S
Zr1351     O1355   2.438       .  S
Zr1351     O1356   2.409       .  S
O1352      C1357   1.288       .  A
O1353      H1370   0.990       .  S
O1353      H1385   0.990       .  S
O1354      H1371   0.990       .  S
O1355      H1375   0.990       .  S
O1355      H1384   0.990       .  S
O1356      C1357   1.280       .  A
C1357      C2826   1.489       .  S
O1358      H1377   0.991       .  S
O1358      H1381   0.990       .  S
O1359      H1373   0.990       .  S
O1359      H1380   0.990       .  S
O1360      C1364   1.286       .  A
O1361      C1364   1.286       .  A
O1362      H1372   0.990       .  S
O1363      H1376   0.990       .  S
C1364      C2593   1.495       .  S
Zr1387     O1388   2.438       .  S
Zr1387     O1389   2.415       .  S
Zr1387     O1390   2.444       .  S
Zr1387     O1393   2.424       .  S
Zr1387     O1395   2.371       .  S
Zr1387     O1396   2.391       .  S
Zr1387     O1397   2.398       .  S
Zr1387     O1398   2.396       .  S
O1388      H1444   0.990       .  S
O1388      H1452   0.990       .  S
O1389      C1409   1.280       .  A
O1390      C1411   1.287       .  A
O1391     Zr1401   2.408       .  S
O1391      C1410   1.283       .  A
O1392     Zr1400   2.416       .  S
O1392      C1411   1.281       .  A
O1393      C1410   1.283       .  A
O1394     Zr1402   2.460       .  S
O1394      C1409   1.290       .  A
O1395     Zr1400   2.388       .  S
O1395     Zr1402   2.369       .  S
O1396     Zr1401   2.393       .  S
O1396     Zr1402   2.364       .  S
O1396      H1431   0.965       .  S
O1397     Zr1400   2.391       .  S
O1397     Zr1417   2.397       .  S
O1397      H1434   0.966       .  S
O1398     Zr1401   2.397       .  S
O1398     Zr1417   2.383       .  S
Zr1399     O1424   2.440       .  S
Zr1399     O1418   2.474       .  S
Zr1399     O1426   2.440       .  S
Zr1399     O1414   2.438       .  S
Zr1399     O1405   2.417       .  S
Zr1399     O1406   2.420       .  S
Zr1399     O1407   2.379       .  S
Zr1399     O1408   2.372       .  S
Zr1400     O1419   2.435       .  S
Zr1400     O1412   2.436       .  S
Zr1400     O1413   2.397       .  S
Zr1400     O1406   2.396       .  S
Zr1400     O1407   2.399       .  S
Zr1401     O1403   2.436       .  S
Zr1401     O1425   2.436       .  S
Zr1401     O1427   2.447       .  S
Zr1401     O1405   2.388       .  S
Zr1401     O1408   2.381       .  S
Zr1402     O1428   2.436       .  S
Zr1402     O1429   2.436       .  S
Zr1402     O1404   2.436       .  S
Zr1402     O1405   2.412       .  S
Zr1402     O1406   2.403       .  S
O1403      H1440   0.990       .  S
O1404      H1435   0.990       .  S
O1404      H1449   0.990       .  S
O1406      H1432   0.966       .  S
O1407     Zr1417   2.381       .  S
O1408     Zr1417   2.384       .  S
O1408      H1433   0.965       .  S
C1409      C2546   1.497       .  S
C1410      C2509   1.469       .  S
C1411      C3302   1.485       .  S
O1412      H1448   0.990       .  S
O1413      C1415   1.277       .  A
O1414      C1415   1.285       .  A
C1415      C3517   1.468       .  S
O1416     Zr1417   2.434       .  S
O1416      H1445   0.990       .  S
Zr1417     O1420   2.436       .  S
Zr1417     O1421   2.437       .  S
Zr1417     O1422   2.405       .  S
O1418      C1423   1.292       .  A
O1419      H1436   0.990       .  S
O1419      H1451   0.990       .  S
O1420      H1437   0.990       .  S
O1421      H1441   0.990       .  S
O1421      H1450   0.990       .  S
O1422      C1423   1.278       .  A
C1423      C2481   1.492       .  S
O1424      H1443   0.989       .  S
O1424      H1447   0.990       .  S
O1425      H1439   0.990       .  S
O1425      H1446   0.990       .  S
O1426      C1430   1.284       .  A
O1427      C1430   1.287       .  A
O1428      H1438   0.990       .  S
O1429      H1442   0.990       .  S
C1430      C2602   1.491       .  S
Zr1453     O1454   2.439       .  S
Zr1453     O1455   2.433       .  S
Zr1453     O1456   2.478       .  S
Zr1453     O1459   2.431       .  S
Zr1453     O1461   2.380       .  S
Zr1453     O1462   2.399       .  S
Zr1453     O1463   2.407       .  S
Zr1453     O1464   2.408       .  S
O1454      H1510   0.991       .  S
O1454      H1518   0.990       .  S
O1455      C1475   1.282       .  A
O1456      C1477   1.290       .  A
O1457     Zr1467   2.420       .  S
O1457      C1476   1.285       .  A
O1458     Zr1466   2.407       .  S
O1458      C1477   1.281       .  A
O1459      C1476   1.284       .  A
O1460     Zr1468   2.434       .  S
O1460      C1475   1.285       .  A
O1461     Zr1466   2.395       .  S
O1461     Zr1468   2.377       .  S
O1462     Zr1467   2.400       .  S
O1462     Zr1468   2.368       .  S
O1462      H1497   0.967       .  S
O1463     Zr1466   2.397       .  S
O1463     Zr1483   2.404       .  S
O1463      H1500   0.966       .  S
O1464     Zr1467   2.401       .  S
O1464     Zr1483   2.385       .  S
Zr1465     O1490   2.441       .  S
Zr1465     O1484   2.455       .  S
Zr1465     O1492   2.420       .  S
Zr1465     O1480   2.426       .  S
Zr1465     O1471   2.411       .  S
Zr1465     O1472   2.413       .  S
Zr1465     O1473   2.375       .  S
Zr1465     O1474   2.380       .  S
Zr1466     O1485   2.434       .  S
Zr1466     O1478   2.432       .  S
Zr1466     O1479   2.417       .  S
Zr1466     O1472   2.397       .  S
Zr1466     O1473   2.390       .  S
Zr1467     O1469   2.438       .  S
Zr1467     O1491   2.437       .  S
Zr1467     O1493   2.462       .  S
Zr1467     O1471   2.380       .  S
Zr1467     O1474   2.391       .  S
Zr1468     O1494   2.436       .  S
Zr1468     O1495   2.436       .  S
Zr1468     O1470   2.437       .  S
Zr1468     O1471   2.397       .  S
Zr1468     O1472   2.399       .  S
O1469      H1506   0.990       .  S
O1470      H1501   0.990       .  S
O1470      H1515   0.990       .  S
O1472      H1498   0.964       .  S
O1473     Zr1483   2.378       .  S
O1474     Zr1483   2.383       .  S
O1474      H1499   0.967       .  S
C1475      C2565   1.497       .  S
C1476      C4702   1.476       .  S
C1477      C3022   1.497       .  S
O1478      H1514   0.990       .  S
O1479      C1481   1.281       .  A
O1480      C1481   1.280       .  A
C1481      C2845   1.464       .  S
O1482     Zr1483   2.434       .  S
O1482      H1511   0.990       .  S
Zr1483     O1486   2.435       .  S
Zr1483     O1487   2.439       .  S
Zr1483     O1488   2.414       .  S
O1484      C1489   1.286       .  A
O1485      H1502   0.990       .  S
O1485      H1517   0.990       .  S
O1486      H1503   0.990       .  S
O1487      H1507   0.990       .  S
O1487      H1516   0.990       .  S
O1488      C1489   1.281       .  A
C1489      C4385   1.482       .  S
O1490      H1509   0.990       .  S
O1490      H1513   0.991       .  S
O1491      H1505   0.990       .  S
O1491      H1512   0.990       .  S
O1492      C1496   1.281       .  A
O1493      C1496   1.291       .  A
O1494      H1504   0.990       .  S
O1495      H1508   0.990       .  S
C1496      C2462   1.493       .  S
Zr1519     O1520   2.439   1_556  S
Zr1519     O1521   2.430   1_556  S
Zr1519     O1522   2.448   1_556  S
Zr1519     O1525   2.408   1_556  S
Zr1519     O1527   2.377       .  S
Zr1519     O1528   2.389       .  S
Zr1519     O1529   2.401       .  S
Zr1519     O1530   2.404       .  S
O1520      H1576   0.990       .  S
O1520      H1584   0.990       .  S
O1521      C1541   1.282       .  A
O1522      C1543   1.285   1_554  A
O1523     Zr1533   2.412   1_554  S
O1523      C1542   1.281       .  A
O1524     Zr1532   2.415       .  S
O1524      C1543   1.283       .  A
O1525      C1542   1.283       .  A
O1526     Zr1534   2.452   1_554  S
O1526      C1541   1.289       .  A
O1527     Zr1532   2.392       .  S
O1527     Zr1534   2.369       .  S
O1528     Zr1533   2.396       .  S
O1528     Zr1534   2.361       .  S
O1528      H1563   0.922   1_556  S
O1529     Zr1532   2.391       .  S
O1529     Zr1549   2.398       .  S
O1529      H1566   0.967       .  S
O1530     Zr1533   2.402       .  S
O1530     Zr1549   2.388       .  S
Zr1531     O1556   2.439       .  S
Zr1531     O1550   2.459       .  S
Zr1531     O1558   2.424       .  S
Zr1531     O1546   2.429       .  S
Zr1531     O1537   2.414       .  S
Zr1531     O1538   2.415       .  S
Zr1531     O1539   2.377       .  S
Zr1531     O1540   2.379       .  S
Zr1532     O1551   2.436       .  S
Zr1532     O1544   2.435       .  S
Zr1532     O1545   2.423       .  S
Zr1532     O1538   2.391       .  S
Zr1532     O1539   2.388       .  S
Zr1533     O1535   2.434       .  S
Zr1533     O1557   2.438   1_556  S
Zr1533     O1559   2.447       .  S
Zr1533     O1537   2.391       .  S
Zr1533     O1540   2.394       .  S
Zr1534     O1560   2.434   1_556  S
Zr1534     O1561   2.435       .  S
Zr1534     O1536   2.437       .  S
Zr1534     O1537   2.408       .  S
Zr1534     O1538   2.397       .  S
O1535      H1572   0.990       .  S
O1536      H1567   0.990       .  S
O1536      H1581   0.990       .  S
O1538      H1564   0.963       .  S
O1539     Zr1549   2.381       .  S
O1540     Zr1549   2.388       .  S
O1540      H1565   0.966       .  S
C1541      C2537   1.500       .  S
C1542      C3694   1.477       .  S
C1543      C3106   1.495       .  S
O1544      H1580   0.990       .  S
O1545      C1547   1.284       .  A
O1546      C1547   1.281       .  A
C1547      C2425   1.477       .  S
O1548     Zr1549   2.436       .  S
O1548      H1577   0.990       .  S
Zr1549     O1552   2.435       .  S
Zr1549     O1553   2.437       .  S
Zr1549     O1554   2.410       .  S
O1550      C1555   1.286       .  A
O1551      H1568   0.990       .  S
O1551      H1583   0.990       .  S
O1552      H1569   0.990       .  S
O1553      H1573   0.990       .  S
O1553      H1582   0.990       .  S
O1554      C1555   1.280       .  A
C1555      C3489   1.482       .  S
O1556      H1575   0.990       .  S
O1556      H1579   0.990       .  S
O1557      H1571   0.989       .  S
O1557      H1578   0.990   1_554  S
O1558      C1562   1.282       .  A
O1559      C1562   1.284       .  A
O1560      H1570   0.990       .  S
O1561      H1574   0.990       .  S
C1562      C2453   1.495       .  S
Zr1585     O1586   2.439       .  S
Zr1585     O1587   2.421       .  S
Zr1585     O1588   2.466       .  S
Zr1585     O1591   2.437       .  S
Zr1585     O1593   2.376       .  S
Zr1585     O1594   2.401   1_545  S
Zr1585     O1595   2.401       .  S
Zr1585     O1596   2.400       .  S
O1586      H1642   0.990       .  S
O1586      H1650   0.990       .  S
O1587      C1607   1.279       .  A
O1588      C1609   1.290       .  A
O1589     Zr1599   2.417       .  S
O1589      C1608   1.284   1_565  A
O1590     Zr1598   2.411       .  S
O1590      C1609   1.280       .  A
O1591      C1608   1.284       .  A
O1592     Zr1600   2.427       .  S
O1592      C1607   1.283   1_565  A
O1593     Zr1598   2.395       .  S
O1593     Zr1600   2.378   1_545  S
O1594     Zr1599   2.400       .  S
O1594     Zr1600   2.374       .  S
O1594      H1629   0.966       .  S
O1595     Zr1598   2.392       .  S
O1595     Zr1615   2.392       .  S
O1595      H1632   0.966       .  S
O1596     Zr1599   2.397   1_545  S
O1596     Zr1615   2.376       .  S
Zr1597     O1622   2.439       .  S
Zr1597     O1616   2.463       .  S
Zr1597     O1624   2.430       .  S
Zr1597     O1612   2.440       .  S
Zr1597     O1603   2.414       .  S
Zr1597     O1604   2.413       .  S
Zr1597     O1605   2.384   1_565  S
Zr1597     O1606   2.379       .  S
Zr1598     O1617   2.435       .  S
Zr1598     O1610   2.436       .  S
Zr1598     O1611   2.408       .  S
Zr1598     O1604   2.394   1_545  S
Zr1598     O1605   2.391       .  S
Zr1599     O1601   2.438       .  S
Zr1599     O1623   2.437       .  S
Zr1599     O1625   2.444       .  S
Zr1599     O1603   2.391       .  S
Zr1599     O1606   2.395       .  S
Zr1600     O1626   2.436       .  S
Zr1600     O1627   2.436       .  S
Zr1600     O1602   2.438       .  S
Zr1600     O1603   2.405       .  S
Zr1600     O1604   2.384       .  S
O1601      H1638   0.990       .  S
O1602      H1633   0.990   1_565  S
O1602      H1647   0.990   1_565  S
O1604      H1630   0.965       .  S
O1605     Zr1615   2.379       .  S
O1606     Zr1615   2.383   1_565  S
O1606      H1631   0.965       .  S
C1607      C2369   1.474       .  S
C1608      C2341   1.475       .  S
C1609      C3769   1.498       .  S
O1610      H1646   0.990       .  S
O1611      C1613   1.282       .  A
O1612      C1613   1.284   1_565  A
C1613      C3629   1.476       .  S
O1614     Zr1615   2.435       .  S
O1614      H1643   0.990       .  S
Zr1615     O1618   2.436       .  S
Zr1615     O1619   2.437       .  S
Zr1615     O1620   2.394       .  S
O1616      C1621   1.287   1_565  A
O1617      H1634   0.990       .  S
O1617      H1649   0.990       .  S
O1618      H1635   0.990       .  S
O1619      H1639   0.990       .  S
O1619      H1648   0.990       .  S
O1620      C1621   1.278       .  A
C1621      C2322   1.492       .  S
O1622      H1641   0.990       .  S
O1622      H1645   0.990       .  S
O1623      H1637   0.990       .  S
O1623      H1644   0.989       .  S
O1624      C1628   1.283       .  A
O1625      C1628   1.285       .  A
O1626      H1636   0.990       .  S
O1627      H1640   0.990       .  S
C1628      C2397   1.493       .  S
Zr1651     O1652   2.437       .  S
Zr1651     O1653   2.436       .  S
Zr1651     O1654   2.459       .  S
Zr1651     O1657   2.423       .  S
Zr1651     O1659   2.377   1_554  S
Zr1651     O1660   2.395   1_554  S
Zr1651     O1661   2.406   1_554  S
Zr1651     O1662   2.410   1_554  S
O1652      H1708   0.990       .  S
O1652      H1716   0.990       .  S
O1653      C1673   1.283       .  A
O1654      C1675   1.285   1_554  A
O1655     Zr1665   2.411   1_554  S
O1655      C1674   1.284       .  A
O1656     Zr1664   2.411       .  S
O1656      C1675   1.281       .  A
O1657      C1674   1.281       .  A
O1658     Zr1666   2.425   1_554  S
O1658      C1673   1.283       .  A
O1659     Zr1664   2.390       .  S
O1659     Zr1666   2.377       .  S
O1660     Zr1665   2.393       .  S
O1660     Zr1666   2.370       .  S
O1660      H1695   0.966   1_556  S
O1661     Zr1664   2.391       .  S
O1661     Zr1681   2.400       .  S
O1661      H1698   0.966       .  S
O1662     Zr1665   2.395       .  S
O1662     Zr1681   2.390       .  S
Zr1663     O1688   2.435       .  S
Zr1663     O1682   2.458       .  S
Zr1663     O1690   2.448       .  S
Zr1663     O1678   2.434       .  S
Zr1663     O1669   2.410       .  S
Zr1663     O1670   2.411       .  S
Zr1663     O1671   2.383       .  S
Zr1663     O1672   2.383       .  S
Zr1664     O1683   2.438       .  S
Zr1664     O1676   2.432       .  S
Zr1664     O1677   2.411       .  S
Zr1664     O1670   2.395       .  S
Zr1664     O1671   2.394       .  S
Zr1665     O1667   2.435       .  S
Zr1665     O1689   2.437       .  S
Zr1665     O1691   2.439       .  S
Zr1665     O1669   2.385       .  S
Zr1665     O1672   2.387       .  S
Zr1666     O1692   2.436   1_556  S
Zr1666     O1693   2.436       .  S
Zr1666     O1668   2.438       .  S
Zr1666     O1669   2.399       .  S
Zr1666     O1670   2.391       .  S
O1667      H1704   0.989       .  S
O1668      H1699   0.990   1_556  S
O1668      H1713   0.990       .  S
O1670      H1696   0.964       .  S
O1671     Zr1681   2.375       .  S
O1672     Zr1681   2.382       .  S
O1672      H1697   0.966       .  S
C1673      C2285   1.492       .  S
C1674      C2929   1.480       .  S
C1675      C3890   1.491   1_556  S
O1676      H1712   0.990       .  S
O1677      C1679   1.280       .  A
O1678      C1679   1.285       .  A
C1679      C4590   1.483       .  S
O1680     Zr1681   2.436       .  S
O1680      H1709   0.990       .  S
Zr1681     O1684   2.435       .  S
Zr1681     O1685   2.437       .  S
Zr1681     O1686   2.423       .  S
O1682      C1687   1.287       .  A
O1683      H1700   0.990       .  S
O1683      H1715   0.990       .  S
O1684      H1701   0.990       .  S
O1685      H1705   0.990       .  S
O1685      H1714   0.990       .  S
O1686      C1687   1.284       .  A
C1687      C2649   1.503       .  S
O1688      H1707   0.989       .  S
O1688      H1711   0.989       .  S
O1689      H1703   0.990       .  S
O1689      H1710   0.990       .  S
O1690      C1694   1.285       .  A
O1691      C1694   1.287       .  A
O1692      H1702   0.990   1_554  S
O1693      H1706   0.990       .  S
C1694      C2406   1.501       .  S
Zr1717     O1718   2.439       .  S
Zr1717     O1719   2.429       .  S
Zr1717     O1720   2.464       .  S
Zr1717     O1723   2.431       .  S
Zr1717     O1725   2.376       .  S
Zr1717     O1726   2.390   1_545  S
Zr1717     O1727   2.403       .  S
Zr1717     O1728   2.404       .  S
O1718      H1774   0.990       .  S
O1718      H1782   0.990       .  S
O1719      C1739   1.282       .  A
O1720      C1741   1.290       .  A
O1721     Zr1731   2.416       .  S
O1721      C1740   1.282   1_565  A
O1722     Zr1730   2.405       .  S
O1722      C1741   1.279       .  A
O1723      C1740   1.287       .  A
O1724     Zr1732   2.422       .  S
O1724      C1739   1.283   1_565  A
O1725     Zr1730   2.388       .  S
O1725     Zr1732   2.374   1_545  S
O1726     Zr1731   2.393       .  S
O1726     Zr1732   2.373       .  S
O1726      H1761   0.966       .  S
O1727     Zr1730   2.389       .  S
O1727     Zr1747   2.402       .  S
O1727      H1764   0.966       .  S
O1728     Zr1731   2.393   1_545  S
O1728     Zr1747   2.388       .  S
Zr1729     O1754   2.439       .  S
Zr1729     O1748   2.435       .  S
Zr1729     O1756   2.427       .  S
Zr1729     O1744   2.419       .  S
Zr1729     O1735   2.400       .  S
Zr1729     O1736   2.409       .  S
Zr1729     O1737   2.381   1_565  S
Zr1729     O1738   2.380       .  S
Zr1730     O1749   2.435       .  S
Zr1730     O1742   2.434       .  S
Zr1730     O1743   2.397       .  S
Zr1730     O1736   2.398   1_545  S
Zr1730     O1737   2.387       .  S
Zr1731     O1733   2.434       .  S
Zr1731     O1755   2.437       .  S
Zr1731     O1757   2.441       .  S
Zr1731     O1735   2.383       .  S
Zr1731     O1738   2.387       .  S
Zr1732     O1758   2.435       .  S
Zr1732     O1759   2.435       .  S
Zr1732     O1734   2.437       .  S
Zr1732     O1735   2.394       .  S
Zr1732     O1736   2.392       .  S
O1733      H1770   0.990       .  S
O1734      H1765   0.990       .  S
O1734      H1779   0.990   1_565  S
O1736      H1762   0.966       .  S
O1737     Zr1747   2.372       .  S
O1738     Zr1747   2.382   1_565  S
O1738      H1763   0.966       .  S
C1739      C2378   1.482       .  S
C1740      C3470   1.486       .  S
C1741      C3965   1.490       .  S
O1742      H1778   0.990       .  S
O1743      C1745   1.277       .  A
O1744      C1745   1.281   1_565  A
C1745      C2229   1.460       .  S
O1746     Zr1747   2.437       .  S
O1746      H1775   0.990       .  S
Zr1747     O1750   2.436       .  S
Zr1747     O1751   2.439       .  S
Zr1747     O1752   2.422       .  S
O1748      C1753   1.283   1_565  A
O1749      H1766   0.990       .  S
O1749      H1781   0.990       .  S
O1750      H1767   0.990       .  S
O1751      H1771   0.991       .  S
O1751      H1780   0.990       .  S
O1752      C1753   1.284       .  A
C1753      C3573   1.489       .  S
O1754      H1773   0.990       .  S
O1754      H1777   0.990       .  S
O1755      H1769   0.990       .  S
O1755      H1776   0.990       .  S
O1756      C1760   1.283       .  A
O1757      C1760   1.287       .  A
O1758      H1768   0.990       .  S
O1759      H1772   0.990       .  S
C1760      C2257   1.492       .  S
Zr1783     O1784   2.440       .  S
Zr1783     O1785   2.424       .  S
Zr1783     O1786   2.459       .  S
Zr1783     O1789   2.431       .  S
Zr1783     O1791   2.383       .  S
Zr1783     O1792   2.392       .  S
Zr1783     O1793   2.400       .  S
Zr1783     O1794   2.403       .  S
O1784      H1840   0.990       .  S
O1784      H1848   0.990       .  S
O1785      C1805   1.282       .  A
O1786      C1807   1.287       .  A
O1787     Zr1797   2.415       .  S
O1787      C1806   1.282       .  A
O1788     Zr1796   2.419       .  S
O1788      C1807   1.282       .  A
O1789      C1806   1.286       .  A
O1790     Zr1798   2.430       .  S
O1790      C1805   1.285       .  A
O1791     Zr1796   2.391       .  S
O1791     Zr1798   2.378       .  S
O1792     Zr1797   2.389       .  S
O1792     Zr1798   2.370       .  S
O1792      H1827   0.966       .  S
O1793     Zr1796   2.392       .  S
O1793     Zr1813   2.398       .  S
O1793      H1830   0.966       .  S
O1794     Zr1797   2.400       .  S
O1794     Zr1813   2.388       .  S
Zr1795     O1820   2.441       .  S
Zr1795     O1814   2.440       .  S
Zr1795     O1822   2.430       .  S
Zr1795     O1810   2.436       .  S
Zr1795     O1801   2.405       .  S
Zr1795     O1802   2.412       .  S
Zr1795     O1803   2.380       .  S
Zr1795     O1804   2.380       .  S
Zr1796     O1815   2.435       .  S
Zr1796     O1808   2.435       .  S
Zr1796     O1809   2.421       .  S
Zr1796     O1802   2.396       .  S
Zr1796     O1803   2.393       .  S
Zr1797     O1799   2.435       .  S
Zr1797     O1821   2.437       .  S
Zr1797     O1823   2.441       .  S
Zr1797     O1801   2.393       .  S
Zr1797     O1804   2.394       .  S
Zr1798     O1824   2.435       .  S
Zr1798     O1825   2.436       .  S
Zr1798     O1800   2.436       .  S
Zr1798     O1801   2.396       .  S
Zr1798     O1802   2.391       .  S
O1799      H1836   0.990       .  S
O1800      H1831   0.991       .  S
O1800      H1845   0.990       .  S
O1802      H1828   0.966       .  S
O1803     Zr1813   2.378       .  S
O1804     Zr1813   2.383       .  S
O1804      H1829   0.966       .  S
C1805      C2294   1.482       .  S
C1806      C4329   1.471       .  S
C1807      C4114   1.485       .  S
O1808      H1844   0.990       .  S
O1809      C1811   1.281       .  A
O1810      C1811   1.286       .  A
C1811      C2686   1.483       .  S
O1812     Zr1813   2.434       .  S
O1812      H1841   0.990       .  S
Zr1813     O1816   2.436       .  S
Zr1813     O1817   2.438       .  S
Zr1813     O1818   2.417       .  S
O1814      C1819   1.283       .  A
O1815      H1832   0.990       .  S
O1815      H1847   0.990       .  S
O1816      H1833   0.990       .  S
O1817      H1837   0.990       .  S
O1817      H1846   0.990       .  S
O1818      C1819   1.282       .  A
C1819      C4534   1.488       .  S
O1820      H1839   0.990       .  S
O1820      H1843   0.990       .  S
O1821      H1835   0.990       .  S
O1821      H1842   0.990       .  S
O1822      C1826   1.284       .  A
O1823      C1826   1.284       .  A
O1824      H1834   0.990       .  S
O1825      H1838   0.990       .  S
C1826      C2266   1.497       .  S
Zr1849     O1850   2.431       .  S
Zr1849     O1851   2.463       .  S
Zr1849     O1852   2.450       .  S
Zr1849     O1855   2.433       .  S
Zr1849     O1857   2.373       .  S
Zr1849     O1858   2.385       .  S
Zr1849     O1859   2.412       .  S
Zr1849     O1860   2.409       .  S
O1850      H1906   0.989       .  S
O1850      H1914   0.990       .  S
O1851      C1871   1.289       .  A
O1852      C1873   1.285       .  A
O1853     Zr1863   2.412       .  S
O1853      C1872   1.282       .  A
O1854     Zr1862   2.454       .  S
O1854      C1873   1.289       .  A
O1855      C1872   1.283       .  A
O1856     Zr1864   2.400       .  S
O1856      C1871   1.277       .  A
O1857     Zr1862   2.391       .  S
O1857     Zr1864   2.390       .  S
O1858     Zr1863   2.396       .  S
O1858     Zr1864   2.381       .  S
O1858      H1893   0.966       .  S
O1859     Zr1862   2.390       .  S
O1859     Zr1879   2.402       .  S
O1859      H1896   0.964       .  S
O1860     Zr1863   2.385       .  S
O1860     Zr1879   2.399       .  S
Zr1861     O1886   2.439       .  S
Zr1861     O1880   2.422       .  S
Zr1861     O1888   2.454       .  S
Zr1861     O1876   2.439       .  S
Zr1861     O1867   2.398       .  S
Zr1861     O1868   2.406       .  S
Zr1861     O1869   2.389       .  S
Zr1861     O1870   2.380       .  S
Zr1862     O1881   2.438       .  S
Zr1862     O1874   2.434       .  S
Zr1862     O1875   2.415       .  S
Zr1862     O1868   2.405       .  S
Zr1862     O1869   2.396       .  S
Zr1863     O1865   2.435       .  S
Zr1863     O1887   2.437       .  S
Zr1863     O1889   2.417       .  S
Zr1863     O1867   2.391       .  S
Zr1863     O1870   2.383       .  S
Zr1864     O1890   2.434       .  S
Zr1864     O1891   2.435       .  S
Zr1864     O1866   2.437       .  S
Zr1864     O1867   2.391       .  S
Zr1864     O1868   2.385       .  S
O1865      H1902   0.990       .  S
O1866      H1897   0.990       .  S
O1866      H1911   0.990       .  S
O1868      H1894   0.966       .  S
O1869     Zr1879   2.370       .  S
O1870     Zr1879   2.374       .  S
O1870      H1895   0.966       .  S
C1871      C2490   1.489       .  S
C1872      C4030   1.476       .  S
C1873      C2210   1.501       .  S
O1874      H1910   0.990       .  S
O1875      C1877   1.284       .  A
O1876      C1877   1.285       .  A
C1877      C2434   1.482       .  S
O1878     Zr1879   2.434       .  S
O1878      H1907   0.990       .  S
Zr1879     O1882   2.435       .  S
Zr1879     O1883   2.438       .  S
Zr1879     O1884   2.437       .  S
O1880      C1885   1.284       .  A
O1881      H1898   0.990       .  S
O1881      H1913   0.990       .  S
O1882      H1899   0.990       .  S
O1883      H1903   0.990       .  S
O1883      H1912   0.990       .  S
O1884      C1885   1.283       .  A
C1885      C2173   1.493       .  S
O1886      H1905   0.990       .  S
O1886      H1909   0.990       .  S
O1887      H1901   0.990       .  S
O1887      H1908   0.990       .  S
O1888      C1892   1.289       .  A
O1889      C1892   1.282       .  A
O1890      H1900   0.990       .  S
O1891      H1904   0.990       .  S
C1892      C2714   1.491       .  S
Zr1915     O1916   2.434       .  S
Zr1915     O1917   2.462       .  S
Zr1915     O1918   2.442       .  S
Zr1915     O1921   2.421       .  S
Zr1915     O1923   2.372       .  S
Zr1915     O1924   2.382   1_545  S
Zr1915     O1925   2.414       .  S
Zr1915     O1926   2.412       .  S
O1916      H1972   0.990       .  S
O1916      H1980   0.990       .  S
O1917      C1937   1.287       .  A
O1918      C1939   1.283       .  A
O1919     Zr1929   2.409       .  S
O1919      C1938   1.280   1_565  A
O1920     Zr1928   2.468       .  S
O1920      C1939   1.292       .  A
O1921      C1938   1.282       .  A
O1922     Zr1930   2.416       .  S
O1922      C1937   1.281   1_565  A
O1923     Zr1928   2.389       .  S
O1923     Zr1930   2.383   1_545  S
O1924     Zr1929   2.394       .  S
O1924     Zr1930   2.374       .  S
O1924      H1959   0.966       .  S
O1925     Zr1928   2.391       .  S
O1925     Zr1945   2.405       .  S
O1925      H1962   0.965       .  S
O1926     Zr1929   2.391   1_545  S
O1926     Zr1945   2.405       .  S
Zr1927     O1952   2.438       .  S
Zr1927     O1946   2.431       .  S
Zr1927     O1954   2.471       .  S
Zr1927     O1942   2.449       .  S
Zr1927     O1933   2.403       .  S
Zr1927     O1934   2.418       .  S
Zr1927     O1935   2.393   1_565  S
Zr1927     O1936   2.380       .  S
Zr1928     O1947   2.436       .  S
Zr1928     O1940   2.435       .  S
Zr1928     O1941   2.416       .  S
Zr1928     O1934   2.412   1_545  S
Zr1928     O1935   2.402       .  S
Zr1929     O1931   2.435       .  S
Zr1929     O1953   2.436       .  S
Zr1929     O1955   2.417       .  S
Zr1929     O1933   2.386       .  S
Zr1929     O1936   2.392       .  S
Zr1930     O1956   2.436       .  S
Zr1930     O1957   2.436       .  S
Zr1930     O1932   2.437       .  S
Zr1930     O1933   2.399       .  S
Zr1930     O1934   2.384       .  S
O1931      H1968   0.990       .  S
O1932      H1963   0.990       .  S
O1932      H1977   0.990   1_565  S
O1934      H1960   0.965       .  S
O1935     Zr1945   2.370       .  S
O1936     Zr1945   2.376   1_565  S
O1936      H1961   0.967       .  S
C1937      C3134   1.491       .  S
C1938      C2350   1.473       .  S
C1939      C2201   1.509       .  S
O1940      H1976   0.990       .  S
O1941      C1943   1.285       .  A
O1942      C1943   1.286   1_565  A
C1943      C3330   1.487       .  S
O1944     Zr1945   2.434       .  S
O1944      H1973   0.990       .  S
Zr1945     O1948   2.436       .  S
Zr1945     O1949   2.437       .  S
Zr1945     O1950   2.451       .  S
O1946      C1951   1.285   1_565  A
O1947      H1964   0.990       .  S
O1947      H1979   0.990       .  S
O1948      H1965   0.990       .  S
O1949      H1969   0.990       .  S
O1949      H1978   0.990       .  S
O1950      C1951   1.286       .  A
C1951      C2154   1.501       .  S
O1952      H1971   0.990       .  S
O1952      H1975   0.990       .  S
O1953      H1967   0.990       .  S
O1953      H1974   0.990       .  S
O1954      C1958   1.290       .  A
O1955      C1958   1.283       .  A
O1956      H1966   0.990       .  S
O1957      H1970   0.990       .  S
C1958      C2630   1.499       .  S
Zr1981     O1982   2.437       .  S
Zr1981     O1983   2.456       .  S
Zr1981     O1984   2.437       .  S
Zr1981     O1987   2.414       .  S
Zr1981     O1989   2.376       .  S
Zr1981     O1990   2.382       .  S
Zr1981     O1991   2.408       .  S
Zr1981     O1992   2.410       .  S
O1982      H2038   0.990       .  S
O1982      H2046   0.990       .  S
O1983      C2003   1.287       .  A
O1984      C2005   1.283       .  A
O1985     Zr1995   2.416       .  S
O1985      C2004   1.281       .  A
O1986     Zr1994   2.455       .  S
O1986      C2005   1.291       .  A
O1987      C2004   1.282       .  A
O1988     Zr1996   2.416       .  S
O1988      C2003   1.282       .  A
O1989     Zr1994   2.389       .  S
O1989     Zr1996   2.381       .  S
O1990     Zr1995   2.390       .  S
O1990     Zr1996   2.368       .  S
O1990      H2025   0.965       .  S
O1991     Zr1994   2.389       .  S
O1991     Zr2011   2.393       .  S
O1991      H2028   0.965       .  S
O1992     Zr1995   2.393       .  S
O1992     Zr2011   2.399       .  S
Zr1993     O2018   2.439       .  S
Zr1993     O2012   2.432   1_554  S
Zr1993     O2020   2.481       .  S
Zr1993     O2008   2.459       .  S
Zr1993     O1999   2.406       .  S
Zr1993     O2000   2.416       .  S
Zr1993     O2001   2.392       .  S
Zr1993     O2002   2.383       .  S
Zr1994     O2013   2.436       .  S
Zr1994     O2006   2.435   1_655  S
Zr1994     O2007   2.421   1_655  S
Zr1994     O2000   2.411       .  S
Zr1994     O2001   2.399       .  S
Zr1995     O1997   2.436       .  S
Zr1995     O2019   2.435       .  S
Zr1995     O2021   2.412       .  S
Zr1995     O1999   2.395       .  S
Zr1995     O2002   2.393       .  S
Zr1996     O2022   2.436       .  S
Zr1996     O2023   2.435       .  S
Zr1996     O1998   2.436   1_655  S
Zr1996     O1999   2.398       .  S
Zr1996     O2000   2.385       .  S
O1997      H2034   0.990       .  S
O1998      H2029   0.990       .  S
O1998      H2043   0.990       .  S
O2000      H2026   0.965   1_655  S
O2001     Zr2011   2.370       .  S
O2002     Zr2011   2.370       .  S
O2002      H2027   0.967       .  S
C2003      C3993   1.493       .  S
C2004      C2518   1.468       .  S
C2005      C2117   1.501       .  S
O2006      H2042   0.990       .  S
O2007      C2009   1.282       .  A
O2008      C2009   1.290   1_655  A
C2009      C3834   1.471       .  S
O2010     Zr2011   2.434       .  S
O2010      H2039   0.990       .  S
Zr2011     O2014   2.437       .  S
Zr2011     O2015   2.437       .  S
Zr2011     O2016   2.423       .  S
O2012      C2017   1.282       .  A
O2013      H2030   0.990       .  S
O2013      H2045   0.990       .  S
O2014      H2031   0.990       .  S
O2015      H2035   0.990       .  S
O2015      H2044   0.990       .  S
O2016      C2017   1.283   1_554  A
C2017      C2182   1.490       .  S
O2018      H2037   0.991       .  S
O2018      H2041   0.990       .  S
O2019      H2033   0.990       .  S
O2019      H2040   0.990       .  S
O2020      C2024   1.294       .  A
O2021      C2024   1.280       .  A
O2022      H2032   0.990       .  S
O2023      H2036   0.990   1_655  S
C2024      C2798   1.502       .  S
Zr2047     O2048   2.432       .  S
Zr2047     O2049   2.450       .  S
Zr2047     O2050   2.442       .  S
Zr2047     O2053   2.423       .  S
Zr2047     O2055   2.371       .  S
Zr2047     O2056   2.385   1_545  S
Zr2047     O2057   2.407       .  S
Zr2047     O2058   2.415       .  S
O2048      H2104   0.990       .  S
O2048      H2112   0.990       .  S
O2049      C2069   1.286       .  A
O2050      C2071   1.284       .  A
O2051     Zr2061   2.412       .  S
O2051      C2070   1.282       .  A
O2052     Zr2060   2.440       .  S
O2052      C2071   1.287       .  A
O2053      C2070   1.279   1_545  A
O2054     Zr2062   2.404   1_455  S
O2054      C2069   1.277   1_465  A
O2055     Zr2060   2.386       .  S
O2055     Zr2062   2.389   1_545  S
O2056     Zr2061   2.394       .  S
O2056     Zr2062   2.378       .  S
O2056      H2091   0.967       .  S
O2057     Zr2060   2.384       .  S
O2057     Zr2077   2.401       .  S
O2057      H2094   0.965       .  S
O2058     Zr2061   2.397   1_545  S
O2058     Zr2077   2.406       .  S
Zr2059     O2084   2.439       .  S
Zr2059     O2078   2.430       .  S
Zr2059     O2086   2.447       .  S
Zr2059     O2074   2.428   1_655  S
Zr2059     O2065   2.400       .  S
Zr2059     O2066   2.406       .  S
Zr2059     O2067   2.387   1_565  S
Zr2059     O2068   2.378       .  S
Zr2060     O2079   2.436       .  S
Zr2060     O2072   2.432   1_655  S
Zr2060     O2073   2.405   1_655  S
Zr2060     O2066   2.403   1_545  S
Zr2060     O2067   2.398       .  S
Zr2061     O2063   2.435       .  S
Zr2061     O2085   2.435       .  S
Zr2061     O2087   2.428       .  S
Zr2061     O2065   2.387       .  S
Zr2061     O2068   2.389       .  S
Zr2062     O2088   2.435       .  S
Zr2062     O2089   2.437   1_655  S
Zr2062     O2064   2.437   1_655  S
Zr2062     O2065   2.395       .  S
Zr2062     O2066   2.374       .  S
O2063      H2100   0.990       .  S
O2064      H2095   0.990       .  S
O2064      H2109   0.990       .  S
O2066      H2092   0.965   1_655  S
O2067     Zr2077   2.371       .  S
O2068     Zr2077   2.359   1_565  S
O2068      H2093   0.967       .  S
C2069      C2313   1.475   1_655  S
C2070      C3162   1.476   1_565  S
C2071      C2126   1.499       .  S
O2072      H2108   0.989       .  S
O2073      C2075   1.281       .  A
O2074      C2075   1.286   1_565  A
C2075      C2238   1.462       .  S
O2076     Zr2077   2.434       .  S
O2076      H2105   0.990       .  S
Zr2077     O2080   2.435       .  S
Zr2077     O2081   2.438       .  S
Zr2077     O2082   2.454       .  S
O2078      C2083   1.283   1_565  A
O2079      H2096   0.990       .  S
O2079      H2111   0.990   1_655  S
O2080      H2097   0.990       .  S
O2081      H2101   0.990       .  S
O2081      H2110   0.990       .  S
O2082      C2083   1.289       .  A
C2083      C2145   1.503       .  S
O2084      H2103   0.990       .  S
O2084      H2107   0.990       .  S
O2085      H2099   0.990       .  S
O2085      H2106   0.990       .  S
O2086      C2090   1.288       .  A
O2087      C2090   1.284       .  A
O2088      H2098   0.990       .  S
O2089      H2102   0.990       .  S
C2090      C2910   1.481       .  S
C2113      C2114   1.400       .  A
C2113      C2118   1.403       .  A
C2113      H2123   1.084       .  S
C2114      C2119   1.492       .  S
C2114      C2115   1.412       .  A
C2115      C2116   1.403       .  A
C2115      N2120   1.428   1_655  S
C2116      C2117   1.408       .  A
C2116      H2121   1.083       .  S
C2117      C2118   1.422       .  A
C2118      N2122   1.427       .  S
C2119      C2124   1.412       .  A
C2119      C2128   1.400       .  A
N2120      O2135   1.262   1_455  A
N2120      O2136   1.262       .  A
N2122      O2133   1.262       .  A
N2122      O2134   1.262       .  A
C2124      C2125   1.402       .  A
C2124      N2129   1.429   1_655  S
C2125      C2126   1.408       .  A
C2125      H2130   1.083   1_655  S
C2126      C2127   1.420       .  A
C2127      C2128   1.402       .  A
C2127      N2131   1.427       .  S
C2128      H2132   1.083       .  S
N2129      O2139   1.262   1_455  A
N2129      O2140   1.262       .  A
N2131      O2137   1.262       .  A
N2131      O2138   1.262       .  A
C2141      C2142   1.402   1_565  A
C2141      C2146   1.406       .  A
C2141      H2151   1.084       .  S
C2142      C2147   1.492       .  S
C2142      C2143   1.410       .  A
C2143      C2144   1.403       .  A
C2143      N2148   1.428       .  S
C2144      C2145   1.409       .  A
C2144      H2149   1.083       .  S
C2145      C2146   1.421   1_545  A
C2146      N2150   1.429       .  S
C2147      C2152   1.410   1_545  A
C2147      C2156   1.404       .  A
N2148      O2163   1.262       .  A
N2148      O2164   1.262       .  A
N2150      O2161   1.262       .  A
N2150      O2162   1.262       .  A
C2152      C2153   1.401       .  A
C2152      N2157   1.428       .  S
C2153      C2154   1.409   1_565  A
C2153      H2158   1.084       .  S
C2154      C2155   1.419       .  A
C2155      C2156   1.407       .  A
C2155      N2159   1.428       .  S
C2156      H2160   1.084       .  S
N2157      O2167   1.262       .  A
N2157      O2168   1.261       .  A
N2159      O2165   1.262       .  A
N2159      O2166   1.262       .  A
C2169      C2170   1.401       .  A
C2169      C2174   1.401       .  A
C2169      H2179   1.084       .  S
C2170      C2175   1.482       .  S
C2170      C2171   1.408       .  A
C2171      C2172   1.396       .  A
C2171      N2176   1.429       .  S
C2172      C2173   1.409       .  A
C2172      H2177   1.083       .  S
C2173      C2174   1.419       .  A
C2174      N2178   1.428       .  S
C2175      C2180   1.408       .  A
C2175      C2184   1.402       .  A
N2176      O2191   1.262       .  A
N2176      O2192   1.262       .  A
N2178      O2189   1.262       .  A
N2178      O2190   1.262       .  A
C2180      C2181   1.394       .  A
C2180      N2185   1.429       .  S
C2181      C2182   1.407       .  A
C2181      H2186   1.084       .  S
C2182      C2183   1.418       .  A
C2183      C2184   1.403       .  A
C2183      N2187   1.428       .  S
C2184      H2188   1.084       .  S
N2185      O2195   1.262       .  A
N2185      O2196   1.262       .  A
N2187      O2193   1.262       .  A
N2187      O2194   1.262       .  A
C2197      C2198   1.398       .  A
C2197      C2202   1.402       .  A
C2197      H2207   1.083       .  S
C2198      C2203   1.501       .  S
C2198      C2199   1.417       .  A
C2199      C2200   1.408       .  A
C2199      N2204   1.428       .  S
C2200      C2201   1.408       .  A
C2200      H2205   1.083       .  S
C2201      C2202   1.423       .  A
C2202      N2206   1.425       .  S
C2203      C2208   1.418       .  A
C2203      C2212   1.402       .  A
N2204      O2219   1.262       .  A
N2204      O2220   1.261       .  A
N2206      O2217   1.261       .  A
N2206      O2218   1.260       .  A
C2208      C2209   1.405       .  A
C2208      N2213   1.429       .  S
C2209      C2210   1.406       .  A
C2209      H2214   1.084       .  S
C2210      C2211   1.419       .  A
C2211      C2212   1.404       .  A
C2211      N2215   1.427       .  S
C2212      H2216   1.082       .  S
N2213      O2223   1.262       .  A
N2213      O2224   1.262       .  A
N2215      O2221   1.262       .  A
N2215      O2222   1.262       .  A
C2225      C2226   1.402       .  A
C2225      C2230   1.392       .  A
C2225      H2235   1.084       .  S
C2226      C2231   1.464       .  S
C2226      C2227   1.407   1_545  A
C2227      C2228   1.391       .  A
C2227      N2232   1.428       .  S
C2228      C2229   1.402   1_565  A
C2228      H2233   1.084       .  S
C2229      C2230   1.408       .  A
C2230      N2234   1.429       .  S
C2231      C2236   1.410       .  A
C2231      C2240   1.397       .  A
N2232      O2247   1.262       .  A
N2232      O2248   1.262       .  A
N2234      O2245   1.262       .  A
N2234      O2246   1.262       .  A
C2236      C2237   1.396       .  A
C2236      N2241   1.428   1_545  S
C2237      C2238   1.400       .  A
C2237      H2242   1.084   1_545  S
C2238      C2239   1.412       .  A
C2239      C2240   1.387       .  A
C2239      N2243   1.429       .  S
C2240      H2244   1.085       .  S
N2241      O2251   1.262   1_565  A
N2241      O2252   1.262       .  A
N2243      O2249   1.262       .  A
N2243      O2250   1.262       .  A
C2253      C2254   1.399       .  A
C2253      C2258   1.399       .  A
C2253      H2263   1.084       .  S
C2254      C2259   1.485       .  S
C2254      C2255   1.412       .  A
C2255      C2256   1.403       .  A
C2255      N2260   1.429       .  S
C2256      C2257   1.408       .  A
C2256      H2261   1.084       .  S
C2257      C2258   1.418       .  A
C2258      N2262   1.428       .  S
C2259      C2264   1.407       .  A
C2259      C2268   1.405       .  A
N2260      O2275   1.262       .  A
N2260      O2276   1.261       .  A
N2262      O2273   1.262       .  A
N2262      O2274   1.262       .  A
C2264      C2265   1.395       .  A
C2264      N2269   1.429       .  S
C2265      C2266   1.409       .  A
C2265      H2270   1.082       .  S
C2266      C2267   1.418       .  A
C2267      C2268   1.407       .  A
C2267      N2271   1.429       .  S
C2268      H2272   1.084       .  S
N2269      O2279   1.262       .  A
N2269      O2280   1.262       .  A
N2271      O2277   1.262       .  A
N2271      O2278   1.262       .  A
C2281      C2282   1.396       .  A
C2281      C2286   1.398       .  A
C2281      H2291   1.085       .  S
C2282      C2287   1.475       .  S
C2282      C2283   1.406       .  A
C2283      C2284   1.400       .  A
C2283      N2288   1.427       .  S
C2284      C2285   1.409       .  A
C2284      H2289   1.083       .  S
C2285      C2286   1.416       .  A
C2286      N2290   1.423       .  S
C2287      C2292   1.407       .  A
C2287      C2296   1.401       .  A
N2288      O2303   1.262       .  A
N2288      O2304   1.261       .  A
N2290      O2301   1.260       .  A
N2290      O2302   1.262       .  A
C2292      C2293   1.397       .  A
C2292      N2297   1.428       .  S
C2293      C2294   1.406       .  A
C2293      H2298   1.084       .  S
C2294      C2295   1.415       .  A
C2295      C2296   1.400       .  A
C2295      N2299   1.429       .  S
C2296      H2300   1.084       .  S
N2297      O2307   1.262       .  A
N2297      O2308   1.262       .  A
N2299      O2305   1.262       .  A
N2299      O2306   1.262       .  A
C2309      C2310   1.399       .  A
C2309      C2314   1.398       .  A
C2309      H2319   1.084       .  S
C2310      C2315   1.478       .  S
C2310      C2311   1.411   1_445  A
C2311      C2312   1.401   1_565  A
C2311      N2316   1.428       .  S
C2312      C2313   1.402   1_655  A
C2312      H2317   1.084   1_545  S
C2313      C2314   1.413       .  A
C2314      N2318   1.429       .  S
C2315      C2320   1.404   1_554  A
C2315      C2324   1.404   1_544  A
N2316      O2331   1.262       .  A
N2316      O2332   1.261   1_565  A
N2318      O2329   1.262   1_545  A
N2318      O2330   1.262       .  A
C2320      C2321   1.393       .  A
C2320      N2325   1.429       .  S
C2321      C2322   1.410       .  A
C2321      H2326   1.084       .  S
C2322      C2323   1.416   1_545  A
C2323      C2324   1.406       .  A
C2323      N2327   1.428       .  S
C2324      H2328   1.084   1_556  S
N2325      O2335   1.262   1_556  A
N2325      O2336   1.262   1_455  A
N2327      O2333   1.262       .  A
N2327      O2334   1.262       .  A
C2337      C2338   1.402       .  A
C2337      C2342   1.400   1_655  A
C2337      H2347   1.083       .  S
C2338      C2343   1.473       .  S
C2338      C2339   1.409       .  A
C2339      C2340   1.392       .  A
C2339      N2344   1.430   1_545  S
C2340      C2341   1.404   1_655  A
C2340      H2345   1.084   1_545  S
C2341      C2342   1.412       .  A
C2342      N2346   1.428       .  S
C2343      C2348   1.409       .  A
C2343      C2352   1.400   1_545  A
N2344      O2359   1.262       .  A
N2344      O2360   1.262   1_565  A
N2346      O2357   1.262       .  A
N2346      O2358   1.262       .  A
C2348      C2349   1.396       .  A
C2348      N2353   1.429       .  S
C2349      C2350   1.405       .  A
C2349      H2354   1.084       .  S
C2350      C2351   1.411   1_545  A
C2351      C2352   1.393       .  A
C2351      N2355   1.428       .  S
C2352      H2356   1.084       .  S
N2353      O2363   1.262       .  A
N2353      O2364   1.262       .  A
N2355      O2361   1.262       .  A
N2355      O2362   1.262       .  A
C2365      C2366   1.403       .  A
C2365      C2370   1.400       .  A
C2365      H2375   1.084       .  S
C2366      C2371   1.476       .  S
C2366      C2367   1.409   1_545  A
C2367      C2368   1.396       .  A
C2367      N2372   1.428       .  S
C2368      C2369   1.401   1_565  A
C2368      H2373   1.084       .  S
C2369      C2370   1.413       .  A
C2370      N2374   1.429       .  S
C2371      C2376   1.408       .  A
C2371      C2380   1.401       .  A
N2372      O2387   1.262       .  A
N2372      O2388   1.262       .  A
N2374      O2385   1.262       .  A
N2374      O2386   1.262       .  A
C2376      C2377   1.397       .  A
C2376      N2381   1.429   1_545  S
C2377      C2378   1.406       .  A
C2377      H2382   1.084   1_545  S
C2378      C2379   1.414       .  A
C2379      C2380   1.399       .  A
C2379      N2383   1.429       .  S
C2380      H2384   1.084       .  S
N2381      O2391   1.262   1_565  A
N2381      O2392   1.261       .  A
N2383      O2389   1.262       .  A
N2383      O2390   1.262       .  A
C2393      C2394   1.403       .  A
C2393      C2398   1.404       .  A
C2393      H2403   1.084       .  S
C2394      C2399   1.486       .  S
C2394      C2395   1.409       .  A
C2395      C2396   1.400       .  A
C2395      N2400   1.429       .  S
C2396      C2397   1.408       .  A
C2396      H2401   1.084       .  S
C2397      C2398   1.415       .  A
C2398      N2402   1.428       .  S
C2399      C2404   1.408       .  A
C2399      C2408   1.399       .  A
N2400      O2415   1.262       .  A
N2400      O2416   1.262       .  A
N2402      O2413   1.262       .  A
N2402      O2414   1.262       .  A
C2404      C2405   1.405       .  A
C2404      N2409   1.428       .  S
C2405      C2406   1.411       .  A
C2405      H2410   1.083       .  S
C2406      C2407   1.420       .  A
C2407      C2408   1.400       .  A
C2407      N2411   1.427       .  S
C2408      H2412   1.084       .  S
N2409      O2419   1.262       .  A
N2409      O2420   1.262       .  A
N2411      O2417   1.262       .  A
N2411      O2418   1.262       .  A
C2421      C2422   1.399       .  A
C2421      C2426   1.398       .  A
C2421      H2431   1.084       .  S
C2422      C2427   1.467       .  S
C2422      C2423   1.404       .  A
C2423      C2424   1.392       .  A
C2423      N2428   1.429       .  S
C2424      C2425   1.406       .  A
C2424      H2429   1.084       .  S
C2425      C2426   1.415       .  A
C2426      N2430   1.428       .  S
C2427      C2432   1.402       .  A
C2427      C2436   1.401       .  A
N2428      O2443   1.262       .  A
N2428      O2444   1.261       .  A
N2430      O2441   1.261       .  A
N2430      O2442   1.262       .  A
C2432      C2433   1.388       .  A
C2432      N2437   1.429       .  S
C2433      C2434   1.407       .  A
C2433      H2438   1.084       .  S
C2434      C2435   1.417       .  A
C2435      C2436   1.403       .  A
C2435      N2439   1.429       .  S
C2436      H2440   1.084       .  S
N2437      O2447   1.262       .  A
N2437      O2448   1.261       .  A
N2439      O2445   1.262       .  A
N2439      O2446   1.262       .  A
C2449      C2450   1.405       .  A
C2449      C2454   1.405       .  A
C2449      H2459   1.084       .  S
C2450      C2455   1.484       .  S
C2450      C2451   1.407       .  A
C2451      C2452   1.397       .  A
C2451      N2456   1.429       .  S
C2452      C2453   1.410       .  A
C2452      H2457   1.082       .  S
C2453      C2454   1.416       .  A
C2454      N2458   1.428       .  S
C2455      C2460   1.411       .  A
C2455      C2464   1.398       .  A
N2456      O2471   1.262       .  A
N2456      O2472   1.261       .  A
N2458      O2469   1.262       .  A
N2458      O2470   1.262       .  A
C2460      C2461   1.404       .  A
C2460      N2465   1.428       .  S
C2461      C2462   1.406       .  A
C2461      H2466   1.084       .  S
C2462      C2463   1.420       .  A
C2463      C2464   1.400       .  A
C2463      N2467   1.429       .  S
C2464      H2468   1.084       .  S
N2465      O2475   1.262       .  A
N2465      O2476   1.261       .  A
N2467      O2473   1.262       .  A
N2467      O2474   1.262       .  A
C2477      C2478   1.399       .  A
C2477      C2482   1.399       .  A
C2477      H2487   1.084       .  S
C2478      C2483   1.490       .  S
C2478      C2479   1.414       .  A
C2479      C2480   1.404       .  A
C2479      N2484   1.428       .  S
C2480      C2481   1.404       .  A
C2480      H2485   1.084       .  S
C2481      C2482   1.420       .  A
C2482      N2486   1.429       .  S
C2483      C2488   1.414       .  A
C2483      C2492   1.401       .  A
N2484      O2499   1.262       .  A
N2484      O2500   1.261       .  A
N2486      O2497   1.262       .  A
N2486      O2498   1.262       .  A
C2488      C2489   1.401       .  A
C2488      N2493   1.428       .  S
C2489      C2490   1.403       .  A
C2489      H2494   1.084       .  S
C2490      C2491   1.419       .  A
C2491      C2492   1.402       .  A
C2491      N2495   1.429       .  S
C2492      H2496   1.083       .  S
N2493      O2503   1.262       .  A
N2493      O2504   1.262       .  A
N2495      O2501   1.262       .  A
N2495      O2502   1.262       .  A
C2505      C2506   1.402       .  A
C2505      C2510   1.399       .  A
C2505      H2515   1.084       .  S
C2506      C2511   1.469       .  S
C2506      C2507   1.406       .  A
C2507      C2508   1.389       .  A
C2507      N2512   1.429       .  S
C2508      C2509   1.403       .  A
C2508      H2513   1.084       .  S
C2509      C2510   1.411       .  A
C2510      N2514   1.429       .  S
C2511      C2516   1.406       .  A
C2511      C2520   1.401       .  A
N2512      O2527   1.262       .  A
N2512      O2528   1.262       .  A
N2514      O2525   1.262       .  A
N2514      O2526   1.262       .  A
C2516      C2517   1.393       .  A
C2516      N2521   1.429       .  S
C2517      C2518   1.403       .  A
C2517      H2522   1.084       .  S
C2518      C2519   1.410       .  A
C2519      C2520   1.395       .  A
C2519      N2523   1.428       .  S
C2520      H2524   1.084       .  S
N2521      O2531   1.262       .  A
N2521      O2532   1.262       .  A
N2523      O2529   1.262       .  A
N2523      O2530   1.262       .  A
C2533      C2534   1.400       .  A
C2533      C2538   1.406       .  A
C2533      H2543   1.084       .  S
C2534      C2539   1.486       .  S
C2534      C2535   1.408       .  A
C2535      C2536   1.401       .  A
C2535      N2540   1.428       .  S
C2536      C2537   1.408       .  A
C2536      H2541   1.083       .  S
C2537      C2538   1.422       .  A
C2538      N2542   1.429       .  S
C2539      C2544   1.409       .  A
C2539      C2548   1.399       .  A
N2540      O2555   1.262       .  A
N2540      O2556   1.261       .  A
N2542      O2553   1.262       .  A
N2542      O2554   1.262       .  A
C2544      C2545   1.403       .  A
C2544      N2549   1.427       .  S
C2545      C2546   1.406       .  A
C2545      H2550   1.083       .  S
C2546      C2547   1.422       .  A
C2547      C2548   1.404       .  A
C2547      N2551   1.430       .  S
C2548      H2552   1.084       .  S
N2549      O2559   1.262       .  A
N2549      O2560   1.261       .  A
N2551      O2557   1.262       .  A
N2551      O2558   1.262       .  A
C2561      C2562   1.400       .  A
C2561      C2566   1.404       .  A
C2561      H2571   1.084       .  S
C2562      C2567   1.483       .  S
C2562      C2563   1.407       .  A
C2563      C2564   1.399       .  A
C2563      N2568   1.428       .  S
C2564      C2565   1.408       .  A
C2564      H2569   1.083       .  S
C2565      C2566   1.421       .  A
C2566      N2570   1.429       .  S
C2567      C2572   1.406       .  A
C2567      C2576   1.399       .  A
N2568      O2583   1.262       .  A
N2568      O2584   1.262       .  A
N2570      O2581   1.262       .  A
N2570      O2582   1.262       .  A
C2572      C2573   1.401       .  A
C2572      N2577   1.428       .  S
C2573      C2574   1.409       .  A
C2573      H2578   1.083       .  S
C2574      C2575   1.423       .  A
C2575      C2576   1.403       .  A
C2575      N2579   1.429       .  S
C2576      H2580   1.084       .  S
N2577      O2587   1.262       .  A
N2577      O2588   1.261       .  A
N2579      O2585   1.262       .  A
N2579      O2586   1.261       .  A
C2589      C2590   1.404       .  A
C2589      C2594   1.409       .  A
C2589      H2599   1.084       .  S
C2590      C2595   1.487       .  S
C2590      C2591   1.408       .  A
C2591      C2592   1.400       .  A
C2591      N2596   1.428       .  S
C2592      C2593   1.407       .  A
C2592      H2597   1.084       .  S
C2593      C2594   1.417       .  A
C2594      N2598   1.428       .  S
C2595      C2600   1.412       .  A
C2595      C2604   1.399       .  A
N2596      O2611   1.262       .  A
N2596      O2612   1.261       .  A
N2598      O2609   1.262       .  A
N2598      O2610   1.262       .  A
C2600      C2601   1.405       .  A
C2600      N2605   1.428       .  S
C2601      C2602   1.406       .  A
C2601      H2606   1.084       .  S
C2602      C2603   1.417       .  A
C2603      C2604   1.402       .  A
C2603      N2607   1.428       .  S
C2604      H2608   1.084       .  S
N2605      O2615   1.262       .  A
N2605      O2616   1.262       .  A
N2607      O2613   1.262       .  A
N2607      O2614   1.261       .  A
C2617      C2618   1.407       .  A
C2617      C2622   1.412       .  A
C2617      H2627   1.083       .  S
C2618      C2623   1.492       .  S
C2618      C2619   1.408       .  A
C2619      C2620   1.395       .  A
C2619      N2624   1.429       .  S
C2620      C2621   1.409       .  A
C2620      H2625   1.084       .  S
C2621      C2622   1.416       .  A
C2622      N2626   1.427       .  S
C2623      C2628   1.408       .  A
C2623      C2632   1.406       .  A
N2624      O2639   1.262       .  A
N2624      O2640   1.262       .  A
N2626      O2637   1.262       .  A
N2626      O2638   1.262       .  A
C2628      C2629   1.400       .  A
C2628      N2633   1.429       .  S
C2629      C2630   1.410       .  A
C2629      H2634   1.084       .  S
C2630      C2631   1.416       .  A
C2631      C2632   1.409       .  A
C2631      N2635   1.427       .  S
C2632      H2636   1.084       .  S
N2633      O2643   1.262       .  A
N2633      O2644   1.262       .  A
N2635      O2641   1.262       .  A
N2635      O2642   1.262       .  A
C2645      C2646   1.406       .  A
C2645      C2650   1.408       .  A
C2645      H2655   1.084       .  S
C2646      C2651   1.493       .  S
C2646      C2647   1.409       .  A
C2647      C2648   1.400       .  A
C2647      N2652   1.429       .  S
C2648      C2649   1.411       .  A
C2648      H2653   1.083       .  S
C2649      C2650   1.419       .  A
C2650      N2654   1.429       .  S
C2651      C2656   1.415       .  A
C2651      C2660   1.402       .  A
N2652      O2667   1.262       .  A
N2652      O2668   1.261   1_455  A
N2654      O2665   1.262       .  A
N2654      O2666   1.262       .  A
C2656      C2657   1.406   1_455  A
C2656      N2661   1.428   1_455  S
C2657      C2658   1.402   1_655  A
C2657      H2662   1.084       .  S
C2658      C2659   1.414       .  A
C2659      C2660   1.402       .  A
C2659      N2663   1.429       .  S
C2660      H2664   1.084       .  S
N2661      O2671   1.262       .  A
N2661      O2672   1.261       .  A
N2663      O2669   1.262       .  A
N2663      O2670   1.262       .  A
C2673      C2674   1.394       .  A
C2673      C2678   1.392       .  A
C2673      H2683   1.085       .  S
C2674      C2679   1.468       .  S
C2674      C2675   1.409       .  A
C2675      C2676   1.400       .  A
C2675      N2680   1.427       .  S
C2676      C2677   1.401       .  A
C2676      H2681   1.084       .  S
C2677      C2678   1.415       .  A
C2678      N2682   1.429       .  S
C2679      C2684   1.404       .  A
C2679      C2688   1.398       .  A
N2680      O2695   1.262       .  A
N2680      O2696   1.262       .  A
N2682      O2693   1.262       .  A
N2682      O2694   1.262       .  A
C2684      C2685   1.395       .  A
C2684      N2689   1.428       .  S
C2685      C2686   1.407       .  A
C2685      H2690   1.083       .  S
C2686      C2687   1.417       .  A
C2687      C2688   1.398       .  A
C2687      N2691   1.429       .  S
C2688      H2692   1.084       .  S
N2689      O2699   1.262       .  A
N2689      O2700   1.262       .  A
N2691      O2697   1.262       .  A
N2691      O2698   1.262       .  A
C2701      C2702   1.403       .  A
C2701      C2706   1.400       .  A
C2701      H2711   1.083       .  S
C2702      C2707   1.492       .  S
C2702      C2703   1.417       .  A
C2703      C2704   1.401       .  A
C2703      N2708   1.430       .  S
C2704      C2705   1.403       .  A
C2704      H2709   1.084       .  S
C2705      C2706   1.414       .  A
C2706      N2710   1.428       .  S
C2707      C2712   1.417       .  A
C2707      C2716   1.400       .  A
N2708      O2723   1.262       .  A
N2708      O2724   1.261       .  A
N2710      O2721   1.262       .  A
N2710      O2722   1.262       .  A
C2712      C2713   1.405       .  A
C2712      N2717   1.430       .  S
C2713      C2714   1.405       .  A
C2713      H2718   1.084       .  S
C2714      C2715   1.416       .  A
C2715      C2716   1.396       .  A
C2715      N2719   1.428       .  S
C2716      H2720   1.082       .  S
N2717      O2727   1.262       .  A
N2717      O2728   1.262       .  A
N2719      O2725   1.262       .  A
N2719      O2726   1.262       .  A
C2729      C2730   1.395       .  A
C2729      C2734   1.393       .  A
C2729      H2739   1.085       .  S
C2730      C2735   1.469       .  S
C2730      C2731   1.405       .  A
C2731      C2732   1.399       .  A
C2731      N2736   1.428       .  S
C2732      C2733   1.409       .  A
C2732      H2737   1.083       .  S
C2733      C2734   1.420       .  A
C2734      N2738   1.428       .  S
C2735      C2740   1.404       .  A
C2735      C2744   1.402       .  A
N2736      O2751   1.262       .  A
N2736      O2752   1.262       .  A
N2738      O2749   1.262       .  A
N2738      O2750   1.262       .  A
C2740      C2741   1.393       .  A
C2740      N2745   1.428       .  S
C2741      C2742   1.406       .  A
C2741      H2746   1.084       .  S
C2742      C2743   1.413       .  A
C2743      C2744   1.401       .  A
C2743      N2747   1.428       .  S
C2744      H2748   1.084       .  S
N2745      O2755   1.262       .  A
N2745      O2756   1.262       .  A
N2747      O2753   1.262       .  A
N2747      O2754   1.262       .  A
C2757      C2758   1.399       .  A
C2757      C2762   1.400       .  A
C2757      H2767   1.084   1_655  S
C2758      C2763   1.482       .  S
C2758      C2759   1.409       .  A
C2759      C2760   1.399       .  A
C2759      N2764   1.429       .  S
C2760      C2761   1.408       .  A
C2760      H2765   1.083       .  S
C2761      C2762   1.419       .  A
C2762      N2766   1.428   1_655  S
C2763      C2768   1.408       .  A
C2763      C2772   1.399       .  A
N2764      O2779   1.262       .  A
N2764      O2780   1.262       .  A
N2766      O2777   1.262   1_455  A
N2766      O2778   1.262       .  A
C2768      C2769   1.396       .  A
C2768      N2773   1.428       .  S
C2769      C2770   1.407       .  A
C2769      H2774   1.083       .  S
C2770      C2771   1.422       .  A
C2771      C2772   1.403       .  A
C2771      N2775   1.428   1_655  S
C2772      H2776   1.084   1_655  S
N2773      O2783   1.262       .  A
N2773      O2784   1.262       .  A
N2775      O2781   1.262       .  A
N2775      O2782   1.262   1_455  A
C2785      C2786   1.402       .  A
C2785      C2790   1.403       .  A
C2785      H2795   1.082       .  S
C2786      C2791   1.505       .  S
C2786      C2787   1.421       .  A
C2787      C2788   1.409       .  A
C2787      N2792   1.430       .  S
C2788      C2789   1.404       .  A
C2788      H2793   1.084       .  S
C2789      C2790   1.419       .  A
C2790      N2794   1.428       .  S
C2791      C2796   1.421       .  A
C2791      C2800   1.401       .  A
N2792      O2807   1.262       .  A
N2792      O2808   1.262   1_554  A
N2794      O2805   1.262       .  A
N2794      O2806   1.262       .  A
C2796      C2797   1.409       .  A
C2796      N2801   1.429       .  S
C2797      C2798   1.405       .  A
C2797      H2802   1.084       .  S
C2798      C2799   1.421       .  A
C2799      C2800   1.401       .  A
C2799      N2803   1.429       .  S
C2800      H2804   1.082       .  S
N2801      O2811   1.262       .  A
N2801      O2812   1.262   1_554  A
N2803      O2809   1.262       .  A
N2803      O2810   1.262       .  A
C2813      C2814   1.406       .  A
C2813      C2818   1.409       .  A
C2813      H2823   1.083       .  S
C2814      C2819   1.492       .  S
C2814      C2815   1.409       .  A
C2815      C2816   1.397       .  A
C2815      N2820   1.429       .  S
C2816      C2817   1.408       .  A
C2816      H2821   1.084       .  S
C2817      C2818   1.417       .  A
C2818      N2822   1.427       .  S
C2819      C2824   1.410       .  A
C2819      C2828   1.406       .  A
N2820      O2835   1.262       .  A
N2820      O2836   1.262       .  A
N2822      O2833   1.262       .  A
N2822      O2834   1.262       .  A
C2824      C2825   1.399       .  A
C2824      N2829   1.429       .  S
C2825      C2826   1.406       .  A
C2825      H2830   1.084       .  S
C2826      C2827   1.413       .  A
C2827      C2828   1.406       .  A
C2827      N2831   1.428       .  S
C2828      H2832   1.083       .  S
N2829      O2839   1.262       .  A
N2829      O2840   1.262       .  A
N2831      O2837   1.262       .  A
N2831      O2838   1.262       .  A
C2841      C2842   1.391       .  A
C2841      C2846   1.388       .  A
C2841      H2851   1.085       .  S
C2842      C2847   1.454       .  S
C2842      C2843   1.404       .  A
C2843      C2844   1.400       .  A
C2843      N2848   1.430       .  S
C2844      C2845   1.406       .  A
C2844      H2849   1.084       .  S
C2845      C2846   1.411       .  A
C2846      N2850   1.427       .  S
C2847      C2852   1.402       .  A
C2847      C2856   1.394       .  A
N2848      O2863   1.262   1_556  A
N2848      O2864   1.262   1_556  A
N2850      O2861   1.262       .  A
N2850      O2862   1.262       .  A
C2852      C2853   1.391       .  A
C2852      N2857   1.428       .  S
C2853      C2854   1.406       .  A
C2853      H2858   1.084       .  S
C2854      C2855   1.416       .  A
C2855      C2856   1.389       .  A
C2855      N2859   1.429   1_556  S
C2856      H2860   1.085       .  S
N2857      O2867   1.262       .  A
N2857      O2868   1.262       .  A
N2859      O2865   1.262   1_554  A
N2859      O2866   1.262       .  A
C2869      C2870   1.404       .  A
C2869      C2874   1.407       .  A
C2869      H2879   1.084       .  S
C2870      C2875   1.498       .  S
C2870      C2871   1.414       .  A
C2871      C2872   1.403       .  A
C2871      N2876   1.428       .  S
C2872      C2873   1.406       .  A
C2872      H2877   1.084       .  S
C2873      C2874   1.420       .  A
C2874      N2878   1.429       .  S
C2875      C2880   1.415       .  A
C2875      C2884   1.404       .  A
N2876      O2891   1.262       .  A
N2876      O2892   1.262       .  A
N2878      O2889   1.262       .  A
N2878      O2890   1.262       .  A
C2880      C2881   1.405       .  A
C2880      N2885   1.429       .  S
C2881      C2882   1.406       .  A
C2881      H2886   1.084       .  S
C2882      C2883   1.415       .  A
C2883      C2884   1.406       .  A
C2883      N2887   1.428       .  S
C2884      H2888   1.083       .  S
N2885      O2895   1.262       .  A
N2885      O2896   1.262       .  A
N2887      O2893   1.262       .  A
N2887      O2894   1.262       .  A
C2897      C2898   1.398       .  A
C2897      C2902   1.394       .  A
C2897      H2907   1.082       .  S
C2898      C2903   1.493       .  S
C2898      C2899   1.417       .  A
C2899      C2900   1.406       .  A
C2899      N2904   1.429       .  S
C2900      C2901   1.405       .  A
C2900      H2905   1.084       .  S
C2901      C2902   1.420       .  A
C2902      N2906   1.429       .  S
C2903      C2908   1.419       .  A
C2903      C2912   1.403       .  A
N2904      O2919   1.262       .  A
N2904      O2920   1.262       .  A
N2906      O2917   1.262       .  A
N2906      O2918   1.262       .  A
C2908      C2909   1.401       .  A
C2908      N2913   1.430       .  S
C2909      C2910   1.400       .  A
C2909      H2914   1.084       .  S
C2910      C2911   1.412       .  A
C2911      C2912   1.400       .  A
C2911      N2915   1.428       .  S
C2912      H2916   1.082       .  S
N2913      O2923   1.262       .  A
N2913      O2924   1.261       .  A
N2915      O2921   1.261       .  A
N2915      O2922   1.262       .  A
C2925      C2926   1.398       .  A
C2925      C2930   1.396   1_655  A
C2925      H2935   1.084       .  S
C2926      C2931   1.467       .  S
C2926      C2927   1.405       .  A
C2927      C2928   1.387   1_655  A
C2927      N2932   1.429       .  S
C2928      C2929   1.406       .  A
C2928      H2933   1.084       .  S
C2929      C2930   1.417       .  A
C2930      N2934   1.426       .  S
C2931      C2936   1.407       .  A
C2931      C2940   1.400       .  A
N2932      O2947   1.262       .  A
N2932      O2948   1.261       .  A
N2934      O2945   1.259       .  A
N2934      O2946   1.262       .  A
C2936      C2937   1.389       .  A
C2936      N2941   1.429       .  S
C2937      C2938   1.402       .  A
C2937      H2942   1.084       .  S
C2938      C2939   1.412       .  A
C2939      C2940   1.391       .  A
C2939      N2943   1.429       .  S
C2940      H2944   1.084       .  S
N2941      O2951   1.262       .  A
N2941      O2952   1.261       .  A
N2943      O2949   1.262       .  A
N2943      O2950   1.262       .  A
C2953      C2954   1.402       .  A
C2953      C2958   1.405       .  A
C2953      H2963   1.084       .  S
C2954      C2959   1.484       .  S
C2954      C2955   1.406       .  A
C2955      C2956   1.400       .  A
C2955      N2960   1.428       .  S
C2956      C2957   1.410       .  A
C2956      H2961   1.083       .  S
C2957      C2958   1.419       .  A
C2958      N2962   1.429       .  S
C2959      C2964   1.409       .  A
C2959      C2968   1.401       .  A
N2960      O2975   1.262       .  A
N2960      O2976   1.262       .  A
N2962      O2973   1.262       .  A
N2962      O2974   1.262       .  A
C2964      C2965   1.402       .  A
C2964      N2969   1.429       .  S
C2965      C2966   1.408       .  A
C2965      H2970   1.084       .  S
C2966      C2967   1.415       .  A
C2967      C2968   1.403       .  A
C2967      N2971   1.428       .  S
C2968      H2972   1.084       .  S
N2969      O2979   1.262       .  A
N2969      O2980   1.262       .  A
N2971      O2977   1.262       .  A
N2971      O2978   1.262       .  A
C2981      C2982   1.402       .  A
C2981      C2986   1.406       .  A
C2981      H2991   1.084       .  S
C2982      C2987   1.494       .  S
C2982      C2983   1.412       .  A
C2983      C2984   1.403       .  A
C2983      N2988   1.429       .  S
C2984      C2985   1.408       .  A
C2984      H2989   1.084       .  S
C2985      C2986   1.420       .  A
C2986      N2990   1.428       .  S
C2987      C2992   1.412       .  A
C2987      C2996   1.398       .  A
N2988      O3003   1.262       .  A
N2988      O3004   1.262       .  A
N2990      O3001   1.262       .  A
N2990      O3002   1.262       .  A
C2992      C2993   1.406       .  A
C2992      N2997   1.427       .  S
C2993      C2994   1.409       .  A
C2993      H2998   1.083       .  S
C2994      C2995   1.423       .  A
C2995      C2996   1.402       .  A
C2995      N2999   1.426       .  S
C2996      H3000   1.084       .  S
N2997      O3007   1.262       .  A
N2997      O3008   1.262       .  A
N2999      O3005   1.262       .  A
N2999      O3006   1.262       .  A
C3009      C3010   1.400       .  A
C3009      C3014   1.398       .  A
C3009      H3019   1.084       .  S
C3010      C3015   1.497       .  S
C3010      C3011   1.416       .  A
C3011      C3012   1.409       .  A
C3011      N3016   1.428       .  S
C3012      C3013   1.406       .  A
C3012      H3017   1.084       .  S
C3013      C3014   1.420       .  A
C3014      N3018   1.429       .  S
C3015      C3020   1.411       .  A
C3015      C3024   1.410       .  A
N3016      O3031   1.262       .  A
N3016      O3032   1.262       .  A
N3018      O3029   1.262       .  A
N3018      O3030   1.262       .  A
C3020      C3021   1.399       .  A
C3020      N3025   1.428       .  S
C3021      C3022   1.408       .  A
C3021      H3026   1.084       .  S
C3022      C3023   1.414       .  A
C3023      C3024   1.410       .  A
C3023      N3027   1.428       .  S
C3024      H3028   1.084       .  S
N3025      O3035   1.262       .  A
N3025      O3036   1.262       .  A
N3027      O3033   1.262       .  A
N3027      O3034   1.262       .  A
C3037      C3038   1.398   1_556  A
C3037      C3042   1.398       .  A
C3037      H3047   1.085       .  S
C3038      C3043   1.486       .  S
C3038      C3039   1.412   1_554  A
C3039      C3040   1.404       .  A
C3039      N3044   1.429   1_556  S
C3040      C3041   1.408       .  A
C3040      H3045   1.083       .  S
C3041      C3042   1.422       .  A
C3042      N3046   1.429       .  S
C3043      C3048   1.411       .  A
C3043      C3052   1.406       .  A
N3044      O3059   1.262       .  A
N3044      O3060   1.262       .  A
N3046      O3057   1.262       .  A
N3046      O3058   1.262       .  A
C3048      C3049   1.399       .  A
C3048      N3053   1.428       .  S
C3049      C3050   1.403       .  A
C3049      H3054   1.084       .  S
C3050      C3051   1.411       .  A
C3051      C3052   1.403       .  A
C3051      N3055   1.429       .  S
C3052      H3056   1.084       .  S
N3053      O3063   1.262       .  A
N3053      O3064   1.261       .  A
N3055      O3061   1.262       .  A
N3055      O3062   1.262       .  A
C3065      C3066   1.396       .  A
C3065      C3070   1.396       .  A
C3065      H3075   1.085       .  S
C3066      C3071   1.462       .  S
C3066      C3067   1.401       .  A
C3067      C3068   1.392       .  A
C3067      N3072   1.428       .  S
C3068      C3069   1.408       .  A
C3068      H3073   1.083       .  S
C3069      C3070   1.420       .  A
C3070      N3074   1.429       .  S
C3071      C3076   1.404       .  A
C3071      C3080   1.398       .  A
N3072      O3087   1.262       .  A
N3072      O3088   1.262       .  A
N3074      O3085   1.262       .  A
N3074      O3086   1.262       .  A
C3076      C3077   1.391       .  A
C3076      N3081   1.429       .  S
C3077      C3078   1.405       .  A
C3077      H3082   1.084       .  S
C3078      C3079   1.413       .  A
C3079      C3080   1.398       .  A
C3079      N3083   1.428       .  S
C3080      H3084   1.084       .  S
N3081      O3091   1.262       .  A
N3081      O3092   1.262       .  A
N3083      O3089   1.262       .  A
N3083      O3090   1.262       .  A
C3093      C3094   1.399       .  A
C3093      C3098   1.396       .  A
C3093      H3103   1.084       .  S
C3094      C3099   1.476       .  S
C3094      C3095   1.410       .  A
C3095      C3096   1.399       .  A
C3095      N3100   1.428       .  S
C3096      C3097   1.402       .  A
C3096      H3101   1.084       .  S
C3097      C3098   1.415       .  A
C3098      N3102   1.429       .  S
C3099      C3104   1.406   1_554  A
C3099      C3108   1.401       .  A
N3100      O3115   1.261       .  A
N3100      O3116   1.261       .  A
N3102      O3113   1.262   1_554  A
N3102      O3114   1.262       .  A
C3104      C3105   1.392       .  A
C3104      N3109   1.430       .  S
C3105      C3106   1.409       .  A
C3105      H3110   1.083       .  S
C3106      C3107   1.418   1_556  A
C3107      C3108   1.405       .  A
C3107      N3111   1.427       .  S
C3108      H3112   1.084       .  S
N3109      O3119   1.262       .  A
N3109      O3120   1.261       .  A
N3111      O3117   1.262       .  A
N3111      O3118   1.261       .  A
C3121      C3122   1.404       .  A
C3121      C3126   1.408       .  A
C3121      H3131   1.084   1_545  S
C3122      C3127   1.489       .  S
C3122      C3123   1.408       .  A
C3123      C3124   1.397       .  A
C3123      N3128   1.429       .  S
C3124      C3125   1.408       .  A
C3124      H3129   1.084       .  S
C3125      C3126   1.418       .  A
C3126      N3130   1.428   1_545  S
C3127      C3132   1.409   1_545  A
C3127      C3136   1.402       .  A
N3128      O3143   1.262       .  A
N3128      O3144   1.262       .  A
N3130      O3141   1.262       .  A
N3130      O3142   1.262   1_565  A
C3132      C3133   1.401       .  A
C3132      N3137   1.427       .  S
C3133      C3134   1.406   1_565  A
C3133      H3138   1.084       .  S
C3134      C3135   1.413       .  A
C3135      C3136   1.404       .  A
C3135      N3139   1.424       .  S
C3136      H3140   1.084       .  S
N3137      O3147   1.262       .  A
N3137      O3148   1.262       .  A
N3139      O3145   1.262       .  A
N3139      O3146   1.260       .  A
C3149      C3150   1.399   1_565  A
C3149      C3154   1.394       .  A
C3149      H3159   1.084       .  S
C3150      C3155   1.470       .  S
C3150      C3151   1.409       .  A
C3151      C3152   1.394       .  A
C3151      N3156   1.429       .  S
C3152      C3153   1.402       .  A
C3152      H3157   1.084       .  S
C3153      C3154   1.412   1_545  A
C3154      N3158   1.429       .  S
C3155      C3160   1.406   1_545  A
C3155      C3164   1.399       .  A
N3156      O3171   1.262       .  A
N3156      O3172   1.261       .  A
N3158      O3169   1.262       .  A
N3158      O3170   1.262       .  A
C3160      C3161   1.391       .  A
C3160      N3165   1.429       .  S
C3161      C3162   1.405   1_565  A
C3161      H3166   1.084       .  S
C3162      C3163   1.416       .  A
C3163      C3164   1.397       .  A
C3163      N3167   1.428       .  S
C3164      H3168   1.084       .  S
N3165      O3175   1.262       .  A
N3165      O3176   1.262       .  A
N3167      O3173   1.262       .  A
N3167      O3174   1.262       .  A
C3177      C3178   1.401       .  A
C3177      C3182   1.401       .  A
C3177      H3187   1.084       .  S
C3178      C3183   1.482       .  S
C3178      C3179   1.409       .  A
C3179      C3180   1.399       .  A
C3179      N3184   1.429       .  S
C3180      C3181   1.407       .  A
C3180      H3185   1.084       .  S
C3181      C3182   1.415       .  A
C3182      N3186   1.428       .  S
C3183      C3188   1.406       .  A
C3183      C3192   1.403       .  A
N3184      O3199   1.262       .  A
N3184      O3200   1.261       .  A
N3186      O3197   1.262       .  A
N3186      O3198   1.262       .  A
C3188      C3189   1.396       .  A
C3188      N3193   1.429       .  S
C3189      C3190   1.410       .  A
C3189      H3194   1.082       .  S
C3190      C3191   1.420       .  A
C3191      C3192   1.406       .  A
C3191      N3195   1.428       .  S
C3192      H3196   1.084       .  S
N3193      O3203   1.262       .  A
N3193      O3204   1.262       .  A
N3195      O3201   1.262       .  A
N3195      O3202   1.262       .  A
C3205      C3206   1.408       .  A
C3205      C3210   1.404       .  A
C3205      H3215   1.084       .  S
C3206      C3211   1.487       .  S
C3206      C3207   1.411       .  A
C3207      C3208   1.396       .  A
C3207      N3212   1.428       .  S
C3208      C3209   1.405       .  A
C3208      H3213   1.084       .  S
C3209      C3210   1.413       .  A
C3210      N3214   1.428       .  S
C3211      C3216   1.413       .  A
C3211      C3220   1.402       .  A
N3212      O3227   1.262       .  A
N3212      O3228   1.262       .  A
N3214      O3225   1.262       .  A
N3214      O3226   1.262       .  A
C3216      C3217   1.403       .  A
C3216      N3221   1.428       .  S
C3217      C3218   1.405       .  A
C3217      H3222   1.084       .  S
C3218      C3219   1.416       .  A
C3219      C3220   1.394       .  A
C3219      N3223   1.430       .  S
C3220      H3224   1.084       .  S
N3221      O3231   1.262       .  A
N3221      O3232   1.262       .  A
N3223      O3229   1.262       .  A
N3223      O3230   1.262       .  A
C3233      C3234   1.401       .  A
C3233      C3238   1.400       .  A
C3233      H3243   1.084       .  S
C3234      C3239   1.463       .  S
C3234      C3235   1.401       .  A
C3235      C3236   1.388       .  A
C3235      N3240   1.428       .  S
C3236      C3237   1.405       .  A
C3236      H3241   1.084       .  S
C3237      C3238   1.412       .  A
C3238      N3242   1.428       .  S
C3239      C3244   1.401       .  A
C3239      C3248   1.399       .  A
N3240      O3255   1.262       .  A
N3240      O3256   1.261       .  A
N3242      O3253   1.262       .  A
N3242      O3254   1.261       .  A
C3244      C3245   1.388       .  A
C3244      N3249   1.429       .  S
C3245      C3246   1.408       .  A
C3245      H3250   1.084       .  S
C3246      C3247   1.417       .  A
C3247      C3248   1.401       .  A
C3247      N3251   1.428       .  S
C3248      H3252   1.084       .  S
N3249      O3259   1.262       .  A
N3249      O3260   1.261       .  A
N3251      O3257   1.262       .  A
N3251      O3258   1.262       .  A
C3261      C3262   1.399       .  A
C3261      C3266   1.404       .  A
C3261      H3271   1.084       .  S
C3262      C3267   1.484       .  S
C3262      C3263   1.409       .  A
C3263      C3264   1.400       .  A
C3263      N3268   1.428       .  S
C3264      C3265   1.407       .  A
C3264      H3269   1.083       .  S
C3265      C3266   1.422       .  A
C3266      N3270   1.429       .  S
C3267      C3272   1.410       .  A
C3267      C3276   1.401       .  A
N3268      O3283   1.262       .  A
N3268      O3284   1.262       .  A
N3270      O3281   1.262       .  A
N3270      O3282   1.262       .  A
C3272      C3273   1.401       .  A
C3272      N3277   1.428       .  S
C3273      C3274   1.405       .  A
C3273      H3278   1.083       .  S
C3274      C3275   1.414       .  A
C3275      C3276   1.402       .  A
C3275      N3279   1.428       .  S
C3276      H3280   1.084       .  S
N3277      O3287   1.262       .  A
N3277      O3288   1.262       .  A
N3279      O3285   1.262       .  A
N3279      O3286   1.262       .  A
C3289      C3290   1.404       .  A
C3289      C3294   1.408       .  A
C3289      H3299   1.084       .  S
C3290      C3295   1.478       .  S
C3290      C3291   1.405       .  A
C3291      C3292   1.391       .  A
C3291      N3296   1.430       .  S
C3292      C3293   1.411       .  A
C3292      H3297   1.083       .  S
C3293      C3294   1.418       .  A
C3294      N3298   1.428       .  S
C3295      C3300   1.409       .  A
C3295      C3304   1.399       .  A
N3296      O3311   1.262       .  A
N3296      O3312   1.262       .  A
N3298      O3309   1.262       .  A
N3298      O3310   1.262       .  A
C3300      C3301   1.399       .  A
C3300      N3305   1.428       .  S
C3301      C3302   1.405       .  A
C3301      H3306   1.084       .  S
C3302      C3303   1.417       .  A
C3303      C3304   1.399       .  A
C3303      N3307   1.429       .  S
C3304      H3308   1.084       .  S
N3305      O3315   1.262       .  A
N3305      O3316   1.261       .  A
N3307      O3313   1.262       .  A
N3307      O3314   1.262       .  A
C3317      C3318   1.401   1_565  A
C3317      C3322   1.402       .  A
C3317      H3327   1.084       .  S
C3318      C3323   1.471       .  S
C3318      C3319   1.402       .  A
C3319      C3320   1.393       .  A
C3319      N3324   1.429       .  S
C3320      C3321   1.410       .  A
C3320      H3325   1.084       .  S
C3321      C3322   1.414   1_545  A
C3322      N3326   1.427       .  S
C3323      C3328   1.401       .  A
C3323      C3332   1.402   1_545  A
N3324      O3339   1.262       .  A
N3324      O3340   1.262       .  A
N3326      O3337   1.262       .  A
N3326      O3338   1.262       .  A
C3328      C3329   1.388       .  A
C3328      N3333   1.428       .  S
C3329      C3330   1.408       .  A
C3329      H3334   1.083       .  S
C3330      C3331   1.418   1_545  A
C3331      C3332   1.405       .  A
C3331      N3335   1.428       .  S
C3332      H3336   1.084       .  S
N3333      O3343   1.262       .  A
N3333      O3344   1.262       .  A
N3335      O3341   1.262       .  A
N3335      O3342   1.262       .  A
C3345      C3346   1.402       .  A
C3345      C3350   1.405       .  A
C3345      H3355   1.083       .  S
C3346      C3351   1.490       .  S
C3346      C3347   1.411   1_545  A
C3347      C3348   1.400       .  A
C3347      N3352   1.429       .  S
C3348      C3349   1.409   1_565  A
C3348      H3353   1.083       .  S
C3349      C3350   1.419       .  A
C3350      N3354   1.428       .  S
C3351      C3356   1.412   1_545  A
C3351      C3360   1.402       .  A
N3352      O3367   1.262       .  A
N3352      O3368   1.262       .  A
N3354      O3365   1.262       .  A
N3354      O3366   1.262       .  A
C3356      C3357   1.399       .  A
C3356      N3361   1.428       .  S
C3357      C3358   1.405   1_565  A
C3357      H3362   1.084       .  S
C3358      C3359   1.415       .  A
C3359      C3360   1.404       .  A
C3359      N3363   1.425       .  S
C3360      H3364   1.083       .  S
N3361      O3371   1.262   1_565  A
N3361      O3372   1.262       .  A
N3363      O3369   1.262       .  A
N3363      O3370   1.261       .  A
C3373      C3374   1.401       .  A
C3373      C3378   1.403       .  A
C3373      H3383   1.084       .  S
C3374      C3379   1.475       .  S
C3374      C3375   1.405       .  A
C3375      C3376   1.394       .  A
C3375      N3380   1.429       .  S
C3376      C3377   1.407       .  A
C3376      H3381   1.084       .  S
C3377      C3378   1.416       .  A
C3378      N3382   1.429       .  S
C3379      C3384   1.406       .  A
C3379      C3388   1.397       .  A
N3380      O3395   1.262       .  A
N3380      O3396   1.261       .  A
N3382      O3393   1.262       .  A
N3382      O3394   1.262       .  A
C3384      C3385   1.399       .  A
C3384      N3389   1.428       .  S
C3385      C3386   1.406       .  A
C3385      H3390   1.084       .  S
C3386      C3387   1.419       .  A
C3387      C3388   1.400       .  A
C3387      N3391   1.428       .  S
C3388      H3392   1.084       .  S
N3389      O3399   1.262       .  A
N3389      O3400   1.262       .  A
N3391      O3397   1.262       .  A
N3391      O3398   1.262       .  A
C3401      C3402   1.398       .  A
C3401      C3406   1.398       .  A
C3401      H3411   1.084       .  S
C3402      C3407   1.485       .  S
C3402      C3403   1.412   1_545  A
C3403      C3404   1.404       .  A
C3403      N3408   1.428       .  S
C3404      C3405   1.406   1_565  A
C3404      H3409   1.084       .  S
C3405      C3406   1.420       .  A
C3406      N3410   1.429       .  S
C3407      C3412   1.412       .  A
C3407      C3416   1.402   1_545  A
N3408      O3423   1.262       .  A
N3408      O3424   1.262       .  A
N3410      O3421   1.262       .  A
N3410      O3422   1.262       .  A
C3412      C3413   1.399       .  A
C3412      N3417   1.428       .  S
C3413      C3414   1.402   1_545  A
C3413      H3418   1.084       .  S
C3414      C3415   1.415       .  A
C3415      C3416   1.403       .  A
C3415      N3419   1.429       .  S
C3416      H3420   1.084       .  S
N3417      O3427   1.262       .  A
N3417      O3428   1.262       .  A
N3419      O3425   1.262       .  A
N3419      O3426   1.262       .  A
C3429      C3430   1.398       .  A
C3429      C3434   1.394       .  A
C3429      H3439   1.084       .  S
C3430      C3435   1.461       .  S
C3430      C3431   1.404   1_545  A
C3431      C3432   1.392       .  A
C3431      N3436   1.428       .  S
C3432      C3433   1.404   1_565  A
C3432      H3437   1.084       .  S
C3433      C3434   1.412       .  A
C3434      N3438   1.429       .  S
C3435      C3440   1.407       .  A
C3435      C3444   1.394       .  A
N3436      O3451   1.262       .  A
N3436      O3452   1.261       .  A
N3438      O3449   1.262       .  A
N3438      O3450   1.262       .  A
C3440      C3441   1.395       .  A
C3440      N3445   1.428   1_545  S
C3441      C3442   1.401       .  A
C3441      H3446   1.084       .  S
C3442      C3443   1.415       .  A
C3443      C3444   1.392       .  A
C3443      N3447   1.428       .  S
C3444      H3448   1.085       .  S
N3445      O3455   1.262   1_565  A
N3445      O3456   1.261       .  A
N3447      O3453   1.262       .  A
N3447      O3454   1.262       .  A
C3457      C3458   1.400       .  A
C3457      C3462   1.401       .  A
C3457      H3467   1.084       .  S
C3458      C3463   1.466       .  S
C3458      C3459   1.404   1_545  A
C3459      C3460   1.389       .  A
C3459      N3464   1.428       .  S
C3460      C3461   1.403   1_565  A
C3460      H3465   1.084       .  S
C3461      C3462   1.417       .  A
C3462      N3466   1.430       .  S
C3463      C3468   1.404       .  A
C3463      C3472   1.395   1_545  A
N3464      O3479   1.262       .  A
N3464      O3480   1.262       .  A
N3466      O3477   1.262       .  A
N3466      O3478   1.262       .  A
C3468      C3469   1.398       .  A
C3468      N3473   1.428       .  S
C3469      C3470   1.410       .  A
C3469      H3474   1.083       .  S
C3470      C3471   1.419   1_545  A
C3471      C3472   1.392       .  A
C3471      N3475   1.428       .  S
C3472      H3476   1.085       .  S
N3473      O3483   1.262       .  A
N3473      O3484   1.262       .  A
N3475      O3481   1.262       .  A
N3475      O3482   1.262       .  A
C3485      C3486   1.405       .  A
C3485      C3490   1.404       .  A
C3485      H3495   1.083       .  S
C3486      C3491   1.490       .  S
C3486      C3487   1.412       .  A
C3487      C3488   1.399       .  A
C3487      N3492   1.429       .  S
C3488      C3489   1.404       .  A
C3488      H3493   1.084       .  S
C3489      C3490   1.411       .  A
C3490      N3494   1.427       .  S
C3491      C3496   1.409       .  A
C3491      C3500   1.404       .  A
N3492      O3507   1.262       .  A
N3492      O3508   1.262       .  A
N3494      O3505   1.261       .  A
N3494      O3506   1.262       .  A
C3496      C3497   1.398       .  A
C3496      N3501   1.429       .  S
C3497      C3498   1.410       .  A
C3497      H3502   1.083       .  S
C3498      C3499   1.416       .  A
C3499      C3500   1.406       .  A
C3499      N3503   1.428       .  S
C3500      H3504   1.083       .  S
N3501      O3511   1.262       .  A
N3501      O3512   1.262       .  A
N3503      O3509   1.262       .  A
N3503      O3510   1.262       .  A
C3513      C3514   1.397       .  A
C3513      C3518   1.391       .  A
C3513      H3523   1.085       .  S
C3514      C3519   1.461       .  S
C3514      C3515   1.406       .  A
C3515      C3516   1.397       .  A
C3515      N3520   1.428       .  S
C3516      C3517   1.404       .  A
C3516      H3521   1.084       .  S
C3517      C3518   1.412       .  A
C3518      N3522   1.429       .  S
C3519      C3524   1.408       .  A
C3519      C3528   1.396       .  A
N3520      O3535   1.262       .  A
N3520      O3536   1.262       .  A
N3522      O3533   1.262       .  A
N3522      O3534   1.262       .  A
C3524      C3525   1.397       .  A
C3524      N3529   1.428       .  S
C3525      C3526   1.401       .  A
C3525      H3530   1.084       .  S
C3526      C3527   1.409       .  A
C3527      C3528   1.390       .  A
C3527      N3531   1.429       .  S
C3528      H3532   1.085       .  S
N3529      O3539   1.262       .  A
N3529      O3540   1.262       .  A
N3531      O3537   1.262       .  A
N3531      O3538   1.262       .  A
C3541      C3542   1.400       .  A
C3541      C3546   1.405       .  A
C3541      H3551   1.084       .  S
C3542      C3547   1.490       .  S
C3542      C3543   1.409       .  A
C3543      C3544   1.403       .  A
C3543      N3548   1.428       .  S
C3544      C3545   1.410       .  A
C3544      H3549   1.083       .  S
C3545      C3546   1.421       .  A
C3546      N3550   1.427       .  S
C3547      C3552   1.409       .  A
C3547      C3556   1.400       .  A
N3548      O3563   1.262       .  A
N3548      O3564   1.262       .  A
N3550      O3561   1.262       .  A
N3550      O3562   1.262       .  A
C3552      C3553   1.403       .  A
C3552      N3557   1.428       .  S
C3553      C3554   1.409       .  A
C3553      H3558   1.083       .  S
C3554      C3555   1.422       .  A
C3555      C3556   1.405       .  A
C3555      N3559   1.427       .  S
C3556      H3560   1.084       .  S
N3557      O3567   1.262       .  A
N3557      O3568   1.262       .  A
N3559      O3565   1.262       .  A
N3559      O3566   1.262       .  A
C3569      C3570   1.404   1_565  A
C3569      C3574   1.406       .  A
C3569      H3579   1.084       .  S
C3570      C3575   1.485       .  S
C3570      C3571   1.408       .  A
C3571      C3572   1.395       .  A
C3571      N3576   1.428       .  S
C3572      C3573   1.406       .  A
C3572      H3577   1.084       .  S
C3573      C3574   1.417   1_545  A
C3574      N3578   1.429       .  S
C3575      C3580   1.410   1_545  A
C3575      C3584   1.403       .  A
N3576      O3591   1.262       .  A
N3576      O3592   1.262       .  A
N3578      O3589   1.262       .  A
N3578      O3590   1.262       .  A
C3580      C3581   1.401       .  A
C3580      N3585   1.429       .  S
C3581      C3582   1.406   1_565  A
C3581      H3586   1.084       .  S
C3582      C3583   1.413       .  A
C3583      C3584   1.403       .  A
C3583      N3587   1.428       .  S
C3584      H3588   1.084       .  S
N3585      O3595   1.262       .  A
N3585      O3596   1.262       .  A
N3587      O3593   1.262       .  A
N3587      O3594   1.262       .  A
C3597      C3598   1.397   1_565  A
C3597      C3602   1.399       .  A
C3597      H3607   1.085       .  S
C3598      C3603   1.473       .  S
C3598      C3599   1.404       .  A
C3599      C3600   1.399       .  A
C3599      N3604   1.428       .  S
C3600      C3601   1.410       .  A
C3600      H3605   1.083       .  S
C3601      C3602   1.421   1_545  A
C3602      N3606   1.428       .  S
C3603      C3608   1.403       .  A
C3603      C3612   1.400       .  A
N3604      O3619   1.262       .  A
N3604      O3620   1.261       .  A
N3606      O3617   1.262       .  A
N3606      O3618   1.262       .  A
C3608      C3609   1.394       .  A
C3608      N3613   1.428   1_545  S
C3609      C3610   1.408       .  A
C3609      H3614   1.084   1_545  S
C3610      C3611   1.416       .  A
C3611      C3612   1.403       .  A
C3611      N3615   1.426       .  S
C3612      H3616   1.084       .  S
N3613      O3623   1.262       .  A
N3613      O3624   1.262       .  A
N3615      O3621   1.260       .  A
N3615      O3622   1.262       .  A
C3625      C3626   1.401   1_565  A
C3625      C3630   1.397       .  A
C3625      H3635   1.084       .  S
C3626      C3631   1.465       .  S
C3626      C3627   1.403       .  A
C3627      C3628   1.390       .  A
C3627      N3632   1.429       .  S
C3628      C3629   1.408       .  A
C3628      H3633   1.084       .  S
C3629      C3630   1.412   1_545  A
C3630      N3634   1.428       .  S
C3631      C3636   1.404       .  A
C3631      C3640   1.402   1_545  A
N3632      O3647   1.262       .  A
N3632      O3648   1.262       .  A
N3634      O3645   1.262       .  A
N3634      O3646   1.262       .  A
C3636      C3637   1.385   1_556  A
C3636      N3641   1.429       .  S
C3637      C3638   1.403   1_554  A
C3637      H3642   1.084       .  S
C3638      C3639   1.412   1_545  A
C3639      C3640   1.401       .  A
C3639      N3643   1.428       .  S
C3640      H3644   1.084       .  S
N3641      O3651   1.262   1_556  A
N3641      O3652   1.262       .  A
N3643      O3649   1.262       .  A
N3643      O3650   1.262       .  A
C3653      C3654   1.404       .  A
C3653      C3658   1.404       .  A
C3653      H3663   1.084       .  S
C3654      C3659   1.496       .  S
C3654      C3655   1.413   1_545  A
C3655      C3656   1.405       .  A
C3655      N3660   1.428       .  S
C3656      C3657   1.410   1_565  A
C3656      H3661   1.083       .  S
C3657      C3658   1.418       .  A
C3658      N3662   1.428       .  S
C3659      C3664   1.414       .  A
C3659      C3668   1.406   1_545  A
N3660      O3675   1.262       .  A
N3660      O3676   1.262       .  A
N3662      O3673   1.262       .  A
N3662      O3674   1.262       .  A
C3664      C3665   1.404       .  A
C3664      N3669   1.428       .  S
C3665      C3666   1.406       .  A
C3665      H3670   1.084       .  S
C3666      C3667   1.415   1_545  A
C3667      C3668   1.404       .  A
C3667      N3671   1.429       .  S
C3668      H3672   1.084       .  S
N3669      O3679   1.262       .  A
N3669      O3680   1.262       .  A
N3671      O3677   1.262   1_565  A
N3671      O3678   1.262       .  A
C3681      C3682   1.400       .  A
C3681      C3686   1.396       .  A
C3681      H3691   1.084       .  S
C3682      C3687   1.461       .  S
C3682      C3683   1.402       .  A
C3683      C3684   1.391       .  A
C3683      N3688   1.429       .  S
C3684      C3685   1.405       .  A
C3684      H3689   1.084       .  S
C3685      C3686   1.412       .  A
C3686      N3690   1.429       .  S
C3687      C3692   1.401       .  A
C3687      C3696   1.397       .  A
N3688      O3703   1.262       .  A
N3688      O3704   1.261       .  A
N3690      O3701   1.262       .  A
N3690      O3702   1.262       .  A
C3692      C3693   1.392       .  A
C3692      N3697   1.428       .  S
C3693      C3694   1.409       .  A
C3693      H3698   1.084       .  S
C3694      C3695   1.417       .  A
C3695      C3696   1.392       .  A
C3695      N3699   1.429       .  S
C3696      H3700   1.085       .  S
N3697      O3707   1.262       .  A
N3697      O3708   1.262       .  A
N3699      O3705   1.262       .  A
N3699      O3706   1.262       .  A
C3709      C3710   1.404       .  A
C3709      C3714   1.402       .  A
C3709      H3719   1.082       .  S
C3710      C3715   1.497       .  S
C3710      C3711   1.416       .  A
C3711      C3712   1.401       .  A
C3711      N3716   1.429       .  S
C3712      C3713   1.406       .  A
C3712      H3717   1.084       .  S
C3713      C3714   1.415       .  A
C3714      N3718   1.428       .  S
C3715      C3720   1.415       .  A
C3715      C3724   1.403       .  A
N3716      O3731   1.262       .  A
N3716      O3732   1.262       .  A
N3718      O3729   1.262       .  A
N3718      O3730   1.262       .  A
C3720      C3721   1.400       .  A
C3720      N3725   1.429       .  S
C3721      C3722   1.406       .  A
C3721      H3726   1.083       .  S
C3722      C3723   1.421       .  A
C3723      C3724   1.404       .  A
C3723      N3727   1.429       .  S
C3724      H3728   1.082       .  S
N3725      O3735   1.262       .  A
N3725      O3736   1.262       .  A
N3727      O3733   1.262       .  A
N3727      O3734   1.262       .  A
C3737      C3738   1.401       .  A
C3737      C3742   1.407       .  A
C3737      H3747   1.084       .  S
C3738      C3743   1.488       .  S
C3738      C3739   1.408       .  A
C3739      C3740   1.399       .  A
C3739      N3744   1.428       .  S
C3740      C3741   1.408       .  A
C3740      H3745   1.083       .  S
C3741      C3742   1.423       .  A
C3742      N3746   1.429       .  S
C3743      C3748   1.409       .  A
C3743      C3752   1.400       .  A
N3744      O3759   1.262       .  A
N3744      O3760   1.262       .  A
N3746      O3757   1.262       .  A
N3746      O3758   1.262       .  A
C3748      C3749   1.402       .  A
C3748      N3753   1.428       .  S
C3749      C3750   1.410       .  A
C3749      H3754   1.084       .  S
C3750      C3751   1.420       .  A
C3751      C3752   1.404       .  A
C3751      N3755   1.427       .  S
C3752      H3756   1.084       .  S
N3753      O3763   1.262       .  A
N3753      O3764   1.262       .  A
N3755      O3761   1.262       .  A
N3755      O3762   1.262       .  A
C3765      C3766   1.399       .  A
C3765      C3770   1.396       .  A
C3765      H3775   1.085       .  S
C3766      C3771   1.488       .  S
C3766      C3767   1.411       .  A
C3767      C3768   1.408       .  A
C3767      N3772   1.428       .  S
C3768      C3769   1.410       .  A
C3768      H3773   1.083       .  S
C3769      C3770   1.420       .  A
C3770      N3774   1.429       .  S
C3771      C3776   1.411       .  A
C3771      C3780   1.404       .  A
N3772      O3787   1.262       .  A
N3772      O3788   1.261       .  A
N3774      O3785   1.262       .  A
N3774      O3786   1.262       .  A
C3776      C3777   1.402       .  A
C3776      N3781   1.428       .  S
C3777      C3778   1.407       .  A
C3777      H3782   1.084       .  S
C3778      C3779   1.416       .  A
C3779      C3780   1.403       .  A
C3779      N3783   1.428       .  S
C3780      H3784   1.084       .  S
N3781      O3791   1.262       .  A
N3781      O3792   1.262       .  A
N3783      O3789   1.262       .  A
N3783      O3790   1.262       .  A
C3793      C3794   1.407       .  A
C3793      C3798   1.409       .  A
C3793      H3803   1.083       .  S
C3794      C3799   1.494       .  S
C3794      C3795   1.408       .  A
C3795      C3796   1.397       .  A
C3795      N3800   1.429       .  S
C3796      C3797   1.409       .  A
C3796      H3801   1.084       .  S
C3797      C3798   1.417       .  A
C3798      N3802   1.428       .  S
C3799      C3804   1.409   1_554  A
C3799      C3808   1.408       .  A
N3800      O3815   1.262       .  A
N3800      O3816   1.262       .  A
N3802      O3813   1.262       .  A
N3802      O3814   1.262       .  A
C3804      C3805   1.397       .  A
C3804      N3809   1.429       .  S
C3805      C3806   1.407       .  A
C3805      H3810   1.084       .  S
C3806      C3807   1.414       .  A
C3807      C3808   1.408   1_556  A
C3807      N3811   1.428       .  S
C3808      H3812   1.083       .  S
N3809      O3819   1.262       .  A
N3809      O3820   1.262       .  A
N3811      O3817   1.262       .  A
N3811      O3818   1.262       .  A
C3821      C3822   1.401       .  A
C3821      C3826   1.399       .  A
C3821      H3831   1.083       .  S
C3822      C3827   1.485       .  S
C3822      C3823   1.413       .  A
C3823      C3824   1.399       .  A
C3823      N3828   1.429       .  S
C3824      C3825   1.402       .  A
C3824      H3829   1.084       .  S
C3825      C3826   1.414       .  A
C3826      N3830   1.428       .  S
C3827      C3832   1.413   1_556  A
C3827      C3836   1.404       .  A
N3828      O3843   1.262       .  A
N3828      O3844   1.262       .  A
N3830      O3841   1.262       .  A
N3830      O3842   1.262       .  A
C3832      C3833   1.400       .  A
C3832      N3837   1.429       .  S
C3833      C3834   1.400       .  A
C3833      H3838   1.084       .  S
C3834      C3835   1.408   1_554  A
C3835      C3836   1.401       .  A
C3835      N3839   1.428       .  S
C3836      H3840   1.083       .  S
N3837      O3847   1.262       .  A
N3837      O3848   1.262       .  A
N3839      O3845   1.262       .  A
N3839      O3846   1.262       .  A
C3849      C3850   1.396       .  A
C3849      C3854   1.395       .  A
C3849      H3859   1.085       .  S
C3850      C3855   1.464       .  S
C3850      C3851   1.403       .  A
C3851      C3852   1.393       .  A
C3851      N3856   1.428       .  S
C3852      C3853   1.406       .  A
C3852      H3857   1.083       .  S
C3853      C3854   1.418       .  A
C3854      N3858   1.429       .  S
C3855      C3860   1.401       .  A
C3855      C3864   1.398       .  A
N3856      O3871   1.262       .  A
N3856      O3872   1.261       .  A
N3858      O3869   1.262       .  A
N3858      O3870   1.262       .  A
C3860      C3861   1.389       .  A
C3860      N3865   1.428       .  S
C3861      C3862   1.407       .  A
C3861      H3866   1.083       .  S
C3862      C3863   1.418       .  A
C3863      C3864   1.401       .  A
C3863      N3867   1.427       .  S
C3864      H3868   1.084       .  S
N3865      O3875   1.262       .  A
N3865      O3876   1.261       .  A
N3867      O3873   1.262       .  A
N3867      O3874   1.262       .  A
C3877      C3878   1.400   1_556  A
C3877      C3882   1.397       .  A
C3877      H3887   1.085       .  S
C3878      C3883   1.490       .  S
C3878      C3879   1.413       .  A
C3879      C3880   1.404       .  A
C3879      N3884   1.427       .  S
C3880      C3881   1.405       .  A
C3880      H3885   1.083       .  S
C3881      C3882   1.422   1_554  A
C3882      N3886   1.430       .  S
C3883      C3888   1.411       .  A
C3883      C3892   1.408       .  A
N3884      O3899   1.262       .  A
N3884      O3900   1.261       .  A
N3886      O3897   1.262       .  A
N3886      O3898   1.262       .  A
C3888      C3889   1.397       .  A
C3888      N3893   1.428   1_554  S
C3889      C3890   1.406       .  A
C3889      H3894   1.084   1_554  S
C3890      C3891   1.414       .  A
C3891      C3892   1.407       .  A
C3891      N3895   1.428       .  S
C3892      H3896   1.084       .  S
N3893      O3903   1.262       .  A
N3893      O3904   1.262   1_556  A
N3895      O3901   1.262       .  A
N3895      O3902   1.262       .  A
C3905      C3906   1.397       .  A
C3905      C3910   1.391       .  A
C3905      H3915   1.085       .  S
C3906      C3911   1.466       .  S
C3906      C3907   1.409       .  A
C3907      C3908   1.397       .  A
C3907      N3912   1.428       .  S
C3908      C3909   1.401       .  A
C3908      H3913   1.084       .  S
C3909      C3910   1.413       .  A
C3910      N3914   1.428       .  S
C3911      C3916   1.406       .  A
C3911      C3920   1.400       .  A
N3912      O3927   1.262       .  A
N3912      O3928   1.262       .  A
N3914      O3925   1.262       .  A
N3914      O3926   1.262       .  A
C3916      C3917   1.393       .  A
C3916      N3921   1.428       .  S
C3917      C3918   1.403       .  A
C3917      H3922   1.084       .  S
C3918      C3919   1.411       .  A
C3919      C3920   1.394       .  A
C3919      N3923   1.429       .  S
C3920      H3924   1.085       .  S
N3921      O3931   1.262       .  A
N3921      O3932   1.261       .  A
N3923      O3929   1.262       .  A
N3923      O3930   1.262       .  A
C3933      C3934   1.404       .  A
C3933      C3938   1.407       .  A
C3933      H3943   1.084       .  S
C3934      C3939   1.487       .  S
C3934      C3935   1.408       .  A
C3935      C3936   1.398       .  A
C3935      N3940   1.429       .  S
C3936      C3937   1.409       .  A
C3936      H3941   1.083       .  S
C3937      C3938   1.418       .  A
C3938      N3942   1.428       .  S
C3939      C3944   1.411       .  A
C3939      C3948   1.401       .  A
N3940      O3955   1.262       .  A
N3940      O3956   1.262       .  A
N3942      O3953   1.262       .  A
N3942      O3954   1.262       .  A
C3944      C3945   1.404       .  A
C3944      N3949   1.429       .  S
C3945      C3946   1.408       .  A
C3945      H3950   1.084       .  S
C3946      C3947   1.417       .  A
C3947      C3948   1.402       .  A
C3947      N3951   1.429       .  S
C3948      H3952   1.084       .  S
N3949      O3959   1.262       .  A
N3949      O3960   1.261       .  A
N3951      O3957   1.262       .  A
N3951      O3958   1.262       .  A
C3961      C3962   1.400       .  A
C3961      C3966   1.397       .  A
C3961      H3971   1.085       .  S
C3962      C3967   1.488       .  S
C3962      C3963   1.412       .  A
C3963      C3964   1.405       .  A
C3963      N3968   1.428       .  S
C3964      C3965   1.406       .  A
C3964      H3969   1.084       .  S
C3965      C3966   1.418       .  A
C3966      N3970   1.430       .  S
C3967      C3972   1.410       .  A
C3967      C3976   1.405       .  A
N3968      O3983   1.262       .  A
N3968      O3984   1.261       .  A
N3970      O3981   1.262       .  A
N3970      O3982   1.262       .  A
C3972      C3973   1.399       .  A
C3972      N3977   1.428       .  S
C3973      C3974   1.408       .  A
C3973      H3978   1.084       .  S
C3974      C3975   1.416       .  A
C3975      C3976   1.406       .  A
C3975      N3979   1.428       .  S
C3976      H3980   1.084       .  S
N3977      O3987   1.262       .  A
N3977      O3988   1.262       .  A
N3979      O3985   1.262       .  A
N3979      O3986   1.262       .  A
C3989      C3990   1.406   1_655  A
C3989      C3994   1.410       .  A
C3989      H3999   1.084       .  S
C3990      C3995   1.488       .  S
C3990      C3991   1.407       .  A
C3991      C3992   1.397       .  A
C3991      N3996   1.429       .  S
C3992      C3993   1.407   1_455  A
C3992      H3997   1.084       .  S
C3993      C3994   1.416       .  A
C3994      N3998   1.429       .  S
C3995      C4000   1.412       .  A
C3995      C4004   1.401       .  A
N3996      O4011   1.262       .  A
N3996      O4012   1.261       .  A
N3998      O4009   1.262       .  A
N3998      O4010   1.262       .  A
C4000      C4001   1.403       .  A
C4000      N4005   1.428       .  S
C4001      C4002   1.404       .  A
C4001      H4006   1.084       .  S
C4002      C4003   1.417       .  A
C4003      C4004   1.404       .  A
C4003      N4007   1.429       .  S
C4004      H4008   1.084       .  S
N4005      O4015   1.262       .  A
N4005      O4016   1.261       .  A
N4007      O4013   1.262       .  A
N4007      O4014   1.262       .  A
C4017      C4018   1.398       .  A
C4017      C4022   1.395       .  A
C4017      H4027   1.084       .  S
C4018      C4023   1.465       .  S
C4018      C4019   1.406   1_655  A
C4019      C4020   1.395       .  A
C4019      N4024   1.428       .  S
C4020      C4021   1.402       .  A
C4020      H4025   1.083       .  S
C4021      C4022   1.412   1_455  A
C4022      N4026   1.429       .  S
C4023      C4028   1.404       .  A
C4023      C4032   1.398       .  A
N4024      O4039   1.262       .  A
N4024      O4040   1.262       .  A
N4026      O4037   1.262       .  A
N4026      O4038   1.262       .  A
C4028      C4029   1.392       .  A
C4028      N4033   1.428       .  S
C4029      C4030   1.404       .  A
C4029      H4034   1.084       .  S
C4030      C4031   1.416       .  A
C4031      C4032   1.399       .  A
C4031      N4035   1.428       .  S
C4032      H4036   1.084       .  S
N4033      O4043   1.262       .  A
N4033      O4044   1.262       .  A
N4035      O4041   1.262       .  A
N4035      O4042   1.262       .  A
C4045      C4046   1.400       .  A
C4045      C4050   1.401       .  A
C4045      H4055   1.084       .  S
C4046      C4051   1.468       .  S
C4046      C4047   1.403       .  A
C4047      C4048   1.393       .  A
C4047      N4052   1.429       .  S
C4048      C4049   1.407       .  A
C4048      H4053   1.084       .  S
C4049      C4050   1.414       .  A
C4050      N4054   1.428       .  S
C4051      C4056   1.402       .  A
C4051      C4060   1.400       .  A
N4052      O4067   1.262       .  A
N4052      O4068   1.262       .  A
N4054      O4065   1.262       .  A
N4054      O4066   1.262       .  A
C4056      C4057   1.389       .  A
C4056      N4061   1.429       .  S
C4057      C4058   1.410       .  A
C4057      H4062   1.084       .  S
C4058      C4059   1.416       .  A
C4059      C4060   1.402       .  A
C4059      N4063   1.428       .  S
C4060      H4064   1.084       .  S
N4061      O4071   1.262       .  A
N4061      O4072   1.261       .  A
N4063      O4069   1.262       .  A
N4063      O4070   1.262       .  A
C4073      C4074   1.399       .  A
C4073      C4078   1.403       .  A
C4073      H4083   1.084       .  S
C4074      C4079   1.487       .  S
C4074      C4075   1.409       .  A
C4075      C4076   1.405       .  A
C4075      N4080   1.428       .  S
C4076      C4077   1.409       .  A
C4076      H4081   1.083       .  S
C4077      C4078   1.421       .  A
C4078      N4082   1.429       .  S
C4079      C4084   1.409       .  A
C4079      C4088   1.400       .  A
N4080      O4095   1.262       .  A
N4080      O4096   1.262       .  A
N4082      O4093   1.261       .  A
N4082      O4094   1.262       .  A
C4084      C4085   1.405       .  A
C4084      N4089   1.428       .  S
C4085      C4086   1.409       .  A
C4085      H4090   1.084       .  S
C4086      C4087   1.419       .  A
C4087      C4088   1.403       .  A
C4087      N4091   1.428       .  S
C4088      H4092   1.084       .  S
N4089      O4099   1.262       .  A
N4089      O4100   1.262       .  A
N4091      O4097   1.262       .  A
N4091      O4098   1.262       .  A
C4101      C4102   1.400       .  A
C4101      C4106   1.396       .  A
C4101      H4111   1.084       .  S
C4102      C4107   1.488       .  S
C4102      C4103   1.414       .  A
C4103      C4104   1.408       .  A
C4103      N4108   1.427       .  S
C4104      C4105   1.404       .  A
C4104      H4109   1.084       .  S
C4105      C4106   1.413       .  A
C4106      N4110   1.428       .  S
C4107      C4112   1.413       .  A
C4107      C4116   1.404       .  A
N4108      O4123   1.262       .  A
N4108      O4124   1.262       .  A
N4110      O4121   1.262       .  A
N4110      O4122   1.262       .  A
C4112      C4113   1.399       .  A
C4112      N4117   1.429       .  S
C4113      C4114   1.404       .  A
C4113      H4118   1.084       .  S
C4114      C4115   1.413       .  A
C4115      C4116   1.406       .  A
C4115      N4119   1.427       .  S
C4116      H4120   1.084       .  S
N4117      O4127   1.262       .  A
N4117      O4128   1.262       .  A
N4119      O4125   1.262       .  A
N4119      O4126   1.261       .  A
C4129      C4130   1.403       .  A
C4129      C4134   1.401       .  A
C4129      H4139   1.083       .  S
C4130      C4135   1.483       .  S
C4130      C4131   1.410       .  A
C4131      C4132   1.395       .  A
C4131      N4136   1.429   1_455  S
C4132      C4133   1.405       .  A
C4132      H4137   1.084       .  S
C4133      C4134   1.413       .  A
C4134      N4138   1.427       .  S
C4135      C4140   1.410       .  A
C4135      C4144   1.404       .  A
N4136      O4151   1.262       .  A
N4136      O4152   1.262       .  A
N4138      O4149   1.261       .  A
N4138      O4150   1.262       .  A
C4140      C4141   1.395       .  A
C4140      N4145   1.429       .  S
C4141      C4142   1.406       .  A
C4141      H4146   1.084       .  S
C4142      C4143   1.414       .  A
C4143      C4144   1.402       .  A
C4143      N4147   1.428   1_455  S
C4144      H4148   1.083       .  S
N4145      O4155   1.262       .  A
N4145      O4156   1.262       .  A
N4147      O4153   1.262   1_655  A
N4147      O4154   1.262       .  A
C4157      C4158   1.396       .  A
C4157      C4162   1.391   1_655  A
C4157      H4167   1.084       .  S
C4158      C4163   1.468       .  S
C4158      C4159   1.411   1_655  A
C4159      C4160   1.398       .  A
C4159      N4164   1.429       .  S
C4160      C4161   1.402       .  A
C4160      H4165   1.084       .  S
C4161      C4162   1.412       .  A
C4162      N4166   1.428   1_455  S
C4163      C4168   1.409       .  A
C4163      C4172   1.399       .  A
N4164      O4179   1.262       .  A
N4164      O4180   1.262       .  A
N4166      O4177   1.262       .  A
N4166      O4178   1.262       .  A
C4168      C4169   1.390       .  A
C4168      N4173   1.429       .  S
C4169      C4170   1.401       .  A
C4169      H4174   1.085       .  S
C4170      C4171   1.413       .  A
C4171      C4172   1.397       .  A
C4171      N4175   1.428       .  S
C4172      H4176   1.084       .  S
N4173      O4183   1.262       .  A
N4173      O4184   1.262       .  A
N4175      O4181   1.262       .  A
N4175      O4182   1.262       .  A
C4185      C4186   1.399       .  A
C4185      C4190   1.401       .  A
C4185      H4195   1.084       .  S
C4186      C4191   1.478       .  S
C4186      C4187   1.406       .  A
C4187      C4188   1.400       .  A
C4187      N4192   1.428       .  S
C4188      C4189   1.410       .  A
C4188      H4193   1.083       .  S
C4189      C4190   1.419       .  A
C4190      N4194   1.428       .  S
C4191      C4196   1.405       .  A
C4191      C4200   1.400       .  A
N4192      O4207   1.262       .  A
N4192      O4208   1.262       .  A
N4194      O4205   1.262       .  A
N4194      O4206   1.262       .  A
C4196      C4197   1.397       .  A
C4196      N4201   1.428       .  S
C4197      C4198   1.409       .  A
C4197      H4202   1.083       .  S
C4198      C4199   1.420       .  A
C4199      C4200   1.403       .  A
C4199      N4203   1.429       .  S
C4200      H4204   1.084       .  S
N4201      O4211   1.262       .  A
N4201      O4212   1.262       .  A
N4203      O4209   1.262       .  A
N4203      O4210   1.262       .  A
C4213      C4214   1.397       .  A
C4213      C4218   1.398       .  A
C4213      H4223   1.084       .  S
C4214      C4219   1.481       .  S
C4214      C4215   1.409       .  A
C4215      C4216   1.404       .  A
C4215      N4220   1.427       .  S
C4216      C4217   1.406       .  A
C4216      H4221   1.084       .  S
C4217      C4218   1.418       .  A
C4218      N4222   1.427       .  S
C4219      C4224   1.407       .  A
C4219      C4228   1.400       .  A
N4220      O4235   1.262       .  A
N4220      O4236   1.262       .  A
N4222      O4233   1.262       .  A
N4222      O4234   1.262       .  A
C4224      C4225   1.397       .  A
C4224      N4229   1.429       .  S
C4225      C4226   1.409       .  A
C4225      H4230   1.083       .  S
C4226      C4227   1.421       .  A
C4227      C4228   1.405       .  A
C4227      N4231   1.428       .  S
C4228      H4232   1.084       .  S
N4229      O4239   1.262       .  A
N4229      O4240   1.262       .  A
N4231      O4237   1.262       .  A
N4231      O4238   1.262       .  A
C4241      C4242   1.404       .  A
C4241      C4246   1.405       .  A
C4241      H4251   1.084       .  S
C4242      C4247   1.489       .  S
C4242      C4243   1.410       .  A
C4243      C4244   1.400       .  A
C4243      N4248   1.429       .  S
C4244      C4245   1.408       .  A
C4244      H4249   1.084       .  S
C4245      C4246   1.414       .  A
C4246      N4250   1.427       .  S
C4247      C4252   1.409       .  A
C4247      C4256   1.404       .  A
N4248      O4263   1.262       .  A
N4248      O4264   1.262       .  A
N4250      O4261   1.262       .  A
N4250      O4262   1.262   1_554  A
C4252      C4253   1.395       .  A
C4252      N4257   1.429       .  S
C4253      C4254   1.406       .  A
C4253      H4258   1.084       .  S
C4254      C4255   1.419       .  A
C4255      C4256   1.409       .  A
C4255      N4259   1.428       .  S
C4256      H4260   1.084       .  S
N4257      O4267   1.262       .  A
N4257      O4268   1.262       .  A
N4259      O4265   1.262   1_554  A
N4259      O4266   1.262       .  A
C4269      C4270   1.403       .  A
C4269      C4274   1.403       .  A
C4269      H4279   1.083       .  S
C4270      C4275   1.483       .  S
C4270      C4271   1.409       .  A
C4271      C4272   1.396       .  A
C4271      N4276   1.429       .  S
C4272      C4273   1.404       .  A
C4272      H4277   1.084       .  S
C4273      C4274   1.413       .  A
C4274      N4278   1.427       .  S
C4275      C4280   1.409       .  A
C4275      C4284   1.403       .  A
N4276      O4291   1.262       .  A
N4276      O4292   1.262       .  A
N4278      O4289   1.262       .  A
N4278      O4290   1.262       .  A
C4280      C4281   1.396       .  A
C4280      N4285   1.428       .  S
C4281      C4282   1.406       .  A
C4281      H4286   1.084       .  S
C4282      C4283   1.415       .  A
C4283      C4284   1.402       .  A
C4283      N4287   1.429       .  S
C4284      H4288   1.084       .  S
N4285      O4295   1.262       .  A
N4285      O4296   1.262       .  A
N4287      O4293   1.262       .  A
N4287      O4294   1.262       .  A
C4297      C4298   1.396       .  A
C4297      C4302   1.392   1_556  A
C4297      H4307   1.085   1_556  S
C4298      C4303   1.472       .  S
C4298      C4299   1.409       .  A
C4299      C4300   1.400       .  A
C4299      N4304   1.427       .  S
C4300      C4301   1.403   1_556  A
C4300      H4305   1.084       .  S
C4301      C4302   1.419       .  A
C4302      N4306   1.429       .  S
C4303      C4308   1.407       .  A
C4303      C4312   1.401       .  A
N4304      O4319   1.262       .  A
N4304      O4320   1.262       .  A
N4306      O4317   1.262       .  A
N4306      O4318   1.262       .  A
C4308      C4309   1.396       .  A
C4308      N4313   1.428       .  S
C4309      C4310   1.405       .  A
C4309      H4314   1.083       .  S
C4310      C4311   1.414       .  A
C4311      C4312   1.394       .  A
C4311      N4315   1.430       .  S
C4312      H4316   1.085       .  S
N4313      O4323   1.262       .  A
N4313      O4324   1.261       .  A
N4315      O4321   1.262       .  A
N4315      O4322   1.262       .  A
C4325      C4326   1.400       .  A
C4325      C4330   1.395       .  A
C4325      H4335   1.084       .  S
C4326      C4331   1.472       .  S
C4326      C4327   1.409       .  A
C4327      C4328   1.397       .  A
C4327      N4332   1.429       .  S
C4328      C4329   1.403       .  A
C4328      H4333   1.084       .  S
C4329      C4330   1.412       .  A
C4330      N4334   1.428       .  S
C4331      C4336   1.408       .  A
C4331      C4340   1.402       .  A
N4332      O4347   1.262       .  A
N4332      O4348   1.262       .  A
N4334      O4345   1.262       .  A
N4334      O4346   1.262       .  A
C4336      C4337   1.392       .  A
C4336      N4341   1.429       .  S
C4337      C4338   1.401       .  A
C4337      H4342   1.084       .  S
C4338      C4339   1.412       .  A
C4339      C4340   1.399       .  A
C4339      N4343   1.429       .  S
C4340      H4344   1.084       .  S
N4341      O4351   1.262       .  A
N4341      O4352   1.262       .  A
N4343      O4349   1.262       .  A
N4343      O4350   1.262       .  A
C4353      C4354   1.403       .  A
C4353      C4358   1.405       .  A
C4353      H4363   1.083       .  S
C4354      C4359   1.501       .  S
C4354      C4355   1.418       .  A
C4355      C4356   1.405       .  A
C4355      N4360   1.429       .  S
C4356      C4357   1.403       .  A
C4356      H4361   1.084       .  S
C4357      C4358   1.418       .  A
C4358      N4362   1.428       .  S
C4359      C4364   1.418       .  A
C4359      C4368   1.402       .  A
N4360      O4375   1.262       .  A
N4360      O4376   1.262       .  A
N4362      O4373   1.262       .  A
N4362      O4374   1.262       .  A
C4364      C4365   1.408       .  A
C4364      N4369   1.429       .  S
C4365      C4366   1.406       .  A
C4365      H4370   1.084       .  S
C4366      C4367   1.418       .  A
C4367      C4368   1.401       .  A
C4367      N4371   1.428       .  S
C4368      H4372   1.082       .  S
N4369      O4379   1.262       .  A
N4369      O4380   1.262       .  A
N4371      O4377   1.262       .  A
N4371      O4378   1.262       .  A
C4381      C4382   1.406       .  A
C4381      C4386   1.405   1_554  A
C4381      H4391   1.083       .  S
C4382      C4387   1.489       .  S
C4382      C4383   1.411   1_554  A
C4383      C4384   1.398       .  A
C4383      N4388   1.429       .  S
C4384      C4385   1.403       .  A
C4384      H4389   1.084       .  S
C4385      C4386   1.412       .  A
C4386      N4390   1.428       .  S
C4387      C4392   1.408       .  A
C4387      C4396   1.405       .  A
N4388      O4403   1.262       .  A
N4388      O4404   1.262       .  A
N4390      O4401   1.262       .  A
N4390      O4402   1.262       .  A
C4392      C4393   1.396       .  A
C4392      N4397   1.429       .  S
C4393      C4394   1.411       .  A
C4393      H4398   1.083       .  S
C4394      C4395   1.417       .  A
C4395      C4396   1.406       .  A
C4395      N4399   1.428       .  S
C4396      H4400   1.084       .  S
N4397      O4407   1.262       .  A
N4397      O4408   1.262       .  A
N4399      O4405   1.262       .  A
N4399      O4406   1.262       .  A
C4409      C4410   1.396       .  A
C4409      C4414   1.394       .  A
C4409      H4419   1.084       .  S
C4410      C4415   1.480       .  S
C4410      C4411   1.410       .  A
C4411      C4412   1.401       .  A
C4411      N4416   1.428       .  S
C4412      C4413   1.406       .  A
C4412      H4417   1.084       .  S
C4413      C4414   1.421       .  A
C4414      N4418   1.429   1_554  S
C4415      C4420   1.408       .  A
C4415      C4424   1.401       .  A
N4416      O4431   1.262       .  A
N4416      O4432   1.262       .  A
N4418      O4429   1.262   1_556  A
N4418      O4430   1.262       .  A
C4420      C4421   1.392       .  A
C4420      N4425   1.429       .  S
C4421      C4422   1.406       .  A
C4421      H4426   1.084       .  S
C4422      C4423   1.419       .  A
C4423      C4424   1.404       .  A
C4423      N4427   1.427       .  S
C4424      H4428   1.084       .  S
N4425      O4435   1.262       .  A
N4425      O4436   1.262       .  A
N4427      O4433   1.262       .  A
N4427      O4434   1.262       .  A
C4437      C4438   1.402       .  A
C4437      C4442   1.396       .  A
C4437      H4447   1.083       .  S
C4438      C4443   1.482       .  S
C4438      C4439   1.414       .  A
C4439      C4440   1.399       .  A
C4439      N4444   1.429       .  S
C4440      C4441   1.400       .  A
C4440      H4445   1.084       .  S
C4441      C4442   1.409       .  A
C4442      N4446   1.429       .  S
C4443      C4448   1.412       .  A
C4443      C4452   1.404       .  A
N4444      O4459   1.262       .  A
N4444      O4460   1.261       .  A
N4446      O4457   1.262       .  A
N4446      O4458   1.261       .  A
C4448      C4449   1.395       .  A
C4448      N4453   1.429       .  S
C4449      C4450   1.400       .  A
C4449      H4454   1.084       .  S
C4450      C4451   1.410       .  A
C4451      C4452   1.400       .  A
C4451      N4455   1.429       .  S
C4452      H4456   1.083       .  S
N4453      O4463   1.262       .  A
N4453      O4464   1.262       .  A
N4455      O4461   1.262       .  A
N4455      O4462   1.262       .  A
C4465      C4466   1.401       .  A
C4465      C4470   1.406       .  A
C4465      H4475   1.084       .  S
C4466      C4471   1.480       .  S
C4466      C4467   1.406       .  A
C4467      C4468   1.393       .  A
C4467      N4472   1.429       .  S
C4468      C4469   1.408       .  A
C4468      H4473   1.082       .  S
C4469      C4470   1.421       .  A
C4470      N4474   1.428       .  S
C4471      C4476   1.407       .  A
C4471      C4480   1.400       .  A
N4472      O4487   1.262       .  A
N4472      O4488   1.262       .  A
N4474      O4485   1.262       .  A
N4474      O4486   1.262       .  A
C4476      C4477   1.398       .  A
C4476      N4481   1.428       .  S
C4477      C4478   1.408       .  A
C4477      H4482   1.083       .  S
C4478      C4479   1.419       .  A
C4479      C4480   1.400       .  A
C4479      N4483   1.428       .  S
C4480      H4484   1.084       .  S
N4481      O4491   1.262       .  A
N4481      O4492   1.262       .  A
N4483      O4489   1.262       .  A
N4483      O4490   1.262       .  A
C4493      C4494   1.406       .  A
C4493      C4498   1.409       .  A
C4493      H4503   1.083       .  S
C4494      C4499   1.491       .  S
C4494      C4495   1.410       .  A
C4495      C4496   1.394       .  A
C4495      N4500   1.429       .  S
C4496      C4497   1.406       .  A
C4496      H4501   1.084       .  S
C4497      C4498   1.416       .  A
C4498      N4502   1.428       .  S
C4499      C4504   1.410       .  A
C4499      C4508   1.404       .  A
N4500      O4515   1.262       .  A
N4500      O4516   1.262       .  A
N4502      O4513   1.262       .  A
N4502      O4514   1.262       .  A
C4504      C4505   1.399       .  A
C4504      N4509   1.429       .  S
C4505      C4506   1.406       .  A
C4505      H4510   1.084       .  S
C4506      C4507   1.416       .  A
C4507      C4508   1.406       .  A
C4507      N4511   1.427       .  S
C4508      H4512   1.084       .  S
N4509      O4519   1.262       .  A
N4509      O4520   1.262       .  A
N4511      O4517   1.262       .  A
N4511      O4518   1.262       .  A
C4521      C4522   1.402       .  A
C4521      C4526   1.399       .  A
C4521      H4531   1.084       .  S
C4522      C4527   1.487       .  S
C4522      C4523   1.413       .  A
C4523      C4524   1.400       .  A
C4523      N4528   1.428       .  S
C4524      C4525   1.404       .  A
C4524      H4529   1.084       .  S
C4525      C4526   1.417       .  A
C4526      N4530   1.429       .  S
C4527      C4532   1.411       .  A
C4527      C4536   1.405       .  A
N4528      O4543   1.262       .  A
N4528      O4544   1.262       .  A
N4530      O4541   1.262       .  A
N4530      O4542   1.262       .  A
C4532      C4533   1.398       .  A
C4532      N4537   1.428       .  S
C4533      C4534   1.406       .  A
C4533      H4538   1.084       .  S
C4534      C4535   1.415       .  A
C4535      C4536   1.402       .  A
C4535      N4539   1.429       .  S
C4536      H4540   1.084       .  S
N4537      O4547   1.262       .  A
N4537      O4548   1.262       .  A
N4539      O4545   1.262       .  A
N4539      O4546   1.262       .  A
C4549      C4550   1.398       .  A
C4549      C4554   1.394       .  A
C4549      H4559   1.084       .  S
C4550      C4555   1.472       .  S
C4550      C4551   1.408       .  A
C4551      C4552   1.394       .  A
C4551      N4556   1.429       .  S
C4552      C4553   1.407       .  A
C4552      H4557   1.083       .  S
C4553      C4554   1.417       .  A
C4554      N4558   1.428       .  S
C4555      C4560   1.407       .  A
C4555      C4564   1.399       .  A
N4556      O4571   1.262       .  A
N4556      O4572   1.262       .  A
N4558      O4569   1.262       .  A
N4558      O4570   1.262       .  A
C4560      C4561   1.390       .  A
C4560      N4565   1.429       .  S
C4561      C4562   1.407       .  A
C4561      H4566   1.083       .  S
C4562      C4563   1.419       .  A
C4563      C4564   1.398       .  A
C4563      N4567   1.428       .  S
C4564      H4568   1.084       .  S
N4565      O4575   1.262       .  A
N4565      O4576   1.262       .  A
N4567      O4573   1.262       .  A
N4567      O4574   1.262       .  A
C4577      C4578   1.397       .  A
C4577      C4582   1.392       .  A
C4577      H4587   1.085       .  S
C4578      C4583   1.468       .  S
C4578      C4579   1.406       .  A
C4579      C4580   1.396       .  A
C4579      N4584   1.428       .  S
C4580      C4581   1.406       .  A
C4580      H4585   1.083       .  S
C4581      C4582   1.419       .  A
C4582      N4586   1.430       .  S
C4583      C4588   1.407       .  A
C4583      C4592   1.396       .  A
N4584      O4599   1.262       .  A
N4584      O4600   1.261       .  A
N4586      O4597   1.262       .  A
N4586      O4598   1.262       .  A
C4588      C4589   1.397       .  A
C4588      N4593   1.429       .  S
C4589      C4590   1.408       .  A
C4589      H4594   1.083       .  S
C4590      C4591   1.418       .  A
C4591      C4592   1.392       .  A
C4591      N4595   1.428       .  S
C4592      H4596   1.085       .  S
N4593      O4603   1.262       .  A
N4593      O4604   1.261       .  A
N4595      O4601   1.262       .  A
N4595      O4602   1.262       .  A
C4605      C4606   1.402       .  A
C4605      C4610   1.402       .  A
C4605      H4615   1.084       .  S
C4606      C4611   1.485       .  S
C4606      C4607   1.410       .  A
C4607      C4608   1.399       .  A
C4607      N4612   1.428       .  S
C4608      C4609   1.405       .  A
C4608      H4613   1.084       .  S
C4609      C4610   1.416       .  A
C4610      N4614   1.429       .  S
C4611      C4616   1.409       .  A
C4611      C4620   1.400       .  A
N4612      O4627   1.262       .  A
N4612      O4628   1.262       .  A
N4614      O4625   1.262       .  A
N4614      O4626   1.262       .  A
C4616      C4617   1.398       .  A
C4616      N4621   1.428       .  S
C4617      C4618   1.408       .  A
C4617      H4622   1.083       .  S
C4618      C4619   1.422       .  A
C4619      C4620   1.403       .  A
C4619      N4623   1.429       .  S
C4620      H4624   1.084       .  S
N4621      O4631   1.262       .  A
N4621      O4632   1.262       .  A
N4623      O4629   1.262       .  A
N4623      O4630   1.262       .  A
C4633      C4634   1.404       .  A
C4633      C4638   1.403       .  A
C4633      H4643   1.084       .  S
C4634      C4639   1.484       .  S
C4634      C4635   1.411       .  A
C4635      C4636   1.395       .  A
C4635      N4640   1.429       .  S
C4636      C4637   1.403       .  A
C4636      H4641   1.084       .  S
C4637      C4638   1.412       .  A
C4638      N4642   1.427       .  S
C4639      C4644   1.409       .  A
C4639      C4648   1.403       .  A
N4640      O4655   1.262       .  A
N4640      O4656   1.262       .  A
N4642      O4653   1.262       .  A
N4642      O4654   1.262       .  A
C4644      C4645   1.392       .  A
C4644      N4649   1.429       .  S
C4645      C4646   1.406       .  A
C4645      H4650   1.084       .  S
C4646      C4647   1.416       .  A
C4647      C4648   1.405       .  A
C4647      N4651   1.427       .  S
C4648      H4652   1.083       .  S
N4649      O4659   1.262       .  A
N4649      O4660   1.262       .  A
N4651      O4657   1.262       .  A
N4651      O4658   1.262       .  A
C4661      C4662   1.406       .  A
C4661      C4666   1.405       .  A
C4661      H4671   1.083       .  S
C4662      C4667   1.491       .  S
C4662      C4663   1.412       .  A
C4663      C4664   1.397       .  A
C4663      N4668   1.429       .  S
C4664      C4665   1.405       .  A
C4664      H4669   1.084       .  S
C4665      C4666   1.413       .  A
C4666      N4670   1.427       .  S
C4667      C4672   1.410       .  A
C4667      C4676   1.406       .  A
N4668      O4683   1.262       .  A
N4668      O4684   1.261       .  A
N4670      O4681   1.261       .  A
N4670      O4682   1.262       .  A
C4672      C4673   1.397       .  A
C4672      N4677   1.429       .  S
C4673      C4674   1.408       .  A
C4673      H4678   1.084       .  S
C4674      C4675   1.415       .  A
C4675      C4676   1.406       .  A
C4675      N4679   1.428       .  S
C4676      H4680   1.083       .  S
N4677      O4687   1.262       .  A
N4677      O4688   1.262       .  A
N4679      O4685   1.262       .  A
N4679      O4686   1.262       .  A
C4689      C4690   1.400       .  A
C4689      C4694   1.397       .  A
C4689      H4699   1.084       .  S
C4690      C4695   1.472       .  S
C4690      C4691   1.406       .  A
C4691      C4692   1.395       .  A
C4691      N4696   1.429       .  S
C4692      C4693   1.407       .  A
C4692      H4697   1.083       .  S
C4693      C4694   1.415       .  A
C4694      N4698   1.428       .  S
C4695      C4700   1.406       .  A
C4695      C4704   1.402       .  A
N4696      O4711   1.262       .  A
N4696      O4712   1.262       .  A
N4698      O4709   1.262       .  A
N4698      O4710   1.262       .  A
C4700      C4701   1.392       .  A
C4700      N4705   1.428       .  S
C4701      C4702   1.404       .  A
C4701      H4706   1.084       .  S
C4702      C4703   1.413       .  A
C4703      C4704   1.400       .  A
C4703      N4707   1.429       .  S
C4704      H4708   1.084       .  S
N4705      O4715   1.262       .  A
N4705      O4716   1.262       .  A
N4707      O4713   1.262       .  A
N4707      O4714   1.262       .  A
C4717      C4718   1.402       .  A
C4717      C4722   1.402       .  A
C4717      H4727   1.084       .  S
C4718      C4723   1.468       .  S
C4718      C4719   1.403       .  A
C4719      C4720   1.389       .  A
C4719      N4724   1.429       .  S
C4720      C4721   1.406       .  A
C4720      H4725   1.084       .  S
C4721      C4722   1.414       .  A
C4722      N4726   1.428       .  S
C4723      C4728   1.403       .  A
C4723      C4732   1.399       .  A
N4724      O4739   1.262       .  A
N4724      O4740   1.262       .  A
N4726      O4737   1.262       .  A
N4726      O4738   1.262       .  A
C4728      C4729   1.389       .  A
C4728      N4733   1.428       .  S
C4729      C4730   1.406       .  A
C4729      H4734   1.084       .  S
C4730      C4731   1.417       .  A
C4731      C4732   1.400       .  A
C4731      N4735   1.427       .  S
C4732      H4736   1.084       .  S
N4733      O4743   1.262       .  A
N4733      O4744   1.262       .  A
N4735      O4741   1.261       .  A
N4735      O4742   1.262       .  A
C4745      C4746   1.403       .  A
C4745      C4750   1.408       .  A
C4745      H4755   1.084       .  S
C4746      C4751   1.486       .  S
C4746      C4747   1.407       .  A
C4747      C4748   1.398       .  A
C4747      N4752   1.428       .  S
C4748      C4749   1.407       .  A
C4748      H4753   1.084       .  S
C4749      C4750   1.417       .  A
C4750      N4754   1.429       .  S
C4751      C4756   1.409       .  A
C4751      C4760   1.400       .  A
N4752      O4767   1.262       .  A
N4752      O4768   1.262       .  A
N4754      O4765   1.262       .  A
N4754      O4766   1.262       .  A
C4756      C4757   1.403       .  A
C4756      N4761   1.428       .  S
C4757      C4758   1.406       .  A
C4757      H4762   1.084       .  S
C4758      C4759   1.419       .  A
C4759      C4760   1.404       .  A
C4759      N4763   1.429       .  S
C4760      H4764   1.084       .  S
N4761      O4771   1.262       .  A
N4761      O4772   1.262       .  A
N4763      O4769   1.262       .  A
N4763      O4770   1.262       .  A
C4773      C4774   1.399       .  A
C4773      C4778   1.399       .  A
C4773      H4783   1.084       .  S
C4774      C4779   1.490       .  S
C4774      C4775   1.410       .  A
C4775      C4776   1.404       .  A
C4775      N4780   1.428       .  S
C4776      C4777   1.410       .  A
C4776      H4781   1.083       .  S
C4777      C4778   1.421       .  A
C4778      N4782   1.427       .  S
C4779      C4784   1.411       .  A
C4779      C4788   1.403       .  A
N4780      O4795   1.262       .  A
N4780      O4796   1.262       .  A
N4782      O4793   1.262       .  A
N4782      O4794   1.262       .  A
C4784      C4785   1.398       .  A
C4784      N4789   1.429       .  S
C4785      C4786   1.406       .  A
C4785      H4790   1.084       .  S
C4786      C4787   1.418       .  A
C4787      C4788   1.406       .  A
C4787      N4791   1.428       .  S
C4788      H4792   1.083       .  S
N4789      O4799   1.262       .  A
N4789      O4800   1.262       .  A
N4791      O4797   1.261       .  A
N4791      O4798   1.262       .  A
