geometry optimzed in LAMMPS
_audit_creation_date              2020-12-01 
_audit_creation_method            'lammps2cif' 
_symmetry_space_group_name_H-M    'P1' 
_symmetry_Int_Tables_number       1 
_symmetry_cell_setting            triclinic 
loop_ 
_symmetry_equiv_pos_as_xyz 
  x,y,z 
_cell_length_a                    52.0073475 
_cell_length_b                    50.570654040514576 
_cell_length_c                    26.036435992369388 
_cell_angle_alpha                 90.27080466326994 
_cell_angle_beta                  89.92940070892432 
_cell_angle_gamma                 90.06018586013748 
loop_ 
_atom_site_label 
_atom_site_type_symbol 
_atom_site_fract_x 
_atom_site_fract_y 
_atom_site_fract_z 
_atom_site_charge 
Zn1        Zn  0.13296153  0.89354608  0.55873725     1.49700
Zn2        Zn  0.08611855  0.85551318  0.57169636     1.49400
Zn3        Zn  0.08920675  0.89427545  0.47609833     1.49100
Zn4        Zn  0.12678629  0.84299051  0.48446003     1.49500
O5          O  0.10881942  0.87156988  0.52184190    -1.83300
O6          O  0.13212886  0.88712205  0.63454392    -0.74000
O7          O  0.05040736  0.86892768  0.56570281    -0.73800
O8          O  0.09824001  0.93382756  0.48595268    -0.73300
O9          O  0.09862686  0.86047335  0.64375911    -0.74000
O10         O  0.12802029  0.93216590  0.54667033    -0.73600
O11         O  0.05110897  0.88631859  0.48741383    -0.74200
O12         O  0.12386408  0.85009833  0.40919158    -0.73600
O13         O  0.08084964  0.81711961  0.55641970    -0.74300
O14         O  0.09873268  0.88531944  0.40290902    -0.73700
O15         O  0.10864798  0.80633335  0.49527868    -0.74200
O16         O  0.16619656  0.84645774  0.49517875    -0.74100
O17         O  0.16773326  0.88606525  0.53259388    -0.73900
C18         C  0.11718273  0.87364926  0.66291973     0.77900
C19         C  0.03880358  0.87687915  0.52578060     0.78400
C20         C  0.11443003  0.94536036  0.51546927     0.77400
C21         C  0.11283746  0.86760781  0.38219918     0.77700
C22         C  0.08967239  0.80030747  0.52454613     0.78900
C23         C  0.17876415  0.86707761  0.50947213     0.77900
Zn24       Zn  0.38348520  0.89340363  0.53221223     1.49700
Zn25       Zn  0.37650102  0.84375464  0.45698589     1.49400
Zn26       Zn  0.33539602  0.85696992  0.54284946     1.49100
Zn27       Zn  0.34063017  0.89657838  0.44770518     1.49500
O28         O  0.35892082  0.87266909  0.49384850    -1.83300
O29         O  0.41828856  0.88330252  0.51186707    -0.74000
O30         O  0.35682493  0.80812826  0.46684715    -0.73800
O31         O  0.34423680  0.86460552  0.61625478    -0.73300
O32         O  0.41542946  0.84368713  0.47464769    -0.74000
O33         O  0.38057252  0.88715250  0.60739954    -0.73600
O34         O  0.33260041  0.81817087  0.53424206    -0.74200
O35         O  0.30148839  0.89011046  0.45488084    -0.73600
O36         O  0.37559257  0.85204263  0.38144924    -0.74300
O37         O  0.29967269  0.86676725  0.52720444    -0.73700
O38         O  0.35222779  0.88883256  0.37446061    -0.74200
O39         O  0.35073815  0.93529479  0.46170969    -0.74100
O40         O  0.38170070  0.93215732  0.51952184    -0.73900
C41         C  0.42874885  0.86309736  0.49200028     0.77900
C42         C  0.33987365  0.80173510  0.50032207     0.78400
C43         C  0.36384247  0.87593547  0.63546889     0.77400
C44         C  0.28874474  0.87770858  0.48933643     0.77700
C45         C  0.36595193  0.87053165  0.35464021     0.78900
C46         C  0.36804381  0.94607767  0.48978253     0.77900
Zn47       Zn  0.16324599  0.14910321  0.55666116     1.49700
Zn48       Zn  0.12275164  0.16083578  0.46872667     1.49400
Zn49       Zn  0.15927016  0.10852384  0.46050096     1.49100
Zn50       Zn  0.11618564  0.11092350  0.54411006     1.49500
O51         O  0.14044485  0.13245228  0.50668861    -1.83300
O52         O  0.16701660  0.18778339  0.54382859    -0.74000
O53         O  0.12498395  0.15255876  0.39324543    -0.73800
O54         O  0.19749930  0.11522616  0.47052552    -0.73300
O55         O  0.14077799  0.19764619  0.47977456    -0.74000
O56         O  0.19944230  0.13752377  0.54473861    -0.73600
O57         O  0.14958165  0.11681451  0.38747188    -0.74200
O58         O  0.12078432  0.07195846  0.53218680    -0.73600
O59         O  0.08358969  0.15855719  0.48237213    -0.74300
O60         O  0.15025772  0.06908359  0.47076063    -0.73700
O61         O  0.08094360  0.11988207  0.52282843    -0.74200
O62         O  0.11750352  0.11799622  0.61921280    -0.74100
O63         O  0.15116436  0.14420675  0.63026258    -0.73900
C64         C  0.15849976  0.20432545  0.51153084     0.77900
C65         C  0.13557293  0.13441675  0.36661253     0.78400
C66         C  0.21025791  0.12681352  0.50600843     0.77400
C67         C  0.13428035  0.05819079  0.50135705     0.77700
C68         C  0.07038007  0.13938917  0.50082783     0.78900
C69         C  0.13201035  0.13155415  0.64843530     0.77900
Zn70       Zn  0.41511080  0.14998866  0.41915350     1.49700
Zn71       Zn  0.41072858  0.11015981  0.51279751     1.49400
Zn72       Zn  0.37175266  0.16008463  0.50538349     1.49100
Zn73       Zn  0.36721613  0.11160930  0.42929232     1.49500
O74         O  0.39130883  0.13303335  0.46710468    -1.83300
O75         O  0.45197100  0.13899928  0.43061966    -0.74000
O76         O  0.39926490  0.11706214  0.58592864    -0.73800
O77         O  0.38857558  0.19663329  0.49607028    -0.73300
O78         O  0.44894293  0.11875542  0.50587029    -0.74000
O79         O  0.41748463  0.18861018  0.43516223    -0.73600
O80         O  0.37347990  0.15185472  0.58056095    -0.74200
O81         O  0.33149886  0.11845440  0.45361655    -0.73600
O82         O  0.40324978  0.07087547  0.49868729    -0.74300
O83         O  0.33268349  0.15746941  0.49281002    -0.73700
O84         O  0.37242732  0.07296074  0.44038552    -0.74200
O85         O  0.36985205  0.11906132  0.35420443    -0.74100
O86         O  0.40422593  0.14467180  0.34512501    -0.73900
C87         C  0.46248615  0.12963438  0.47075866     0.77900
C88         C  0.38427621  0.13391821  0.60689231     0.78400
C89         C  0.40726604  0.20423847  0.46764335     0.77400
C90         C  0.32017399  0.13718342  0.47712669     0.77700
C91         C  0.38676389  0.05945662  0.46968875     0.78900
C92         C  0.38534127  0.13197258  0.32583361     0.77900
Zn93       Zn  0.11461327  0.89201681  0.05912850     1.49700
Zn94       Zn  0.11969127  0.84277378  0.98407748     1.49400
Zn95       Zn  0.15891081  0.89238391  0.97629706     1.49100
Zn96       Zn  0.16163658  0.85382173  0.07041725     1.49500
O97         O  0.13860647  0.87023811  0.02193614    -1.83300
O98         O  0.07892834  0.88122236  0.04387342    -0.74000
O99         O  0.11936714  0.85249634  0.90944002    -0.73800
O100        O  0.15161068  0.93179255  0.98781758    -0.73300
O101        O  0.08150178  0.84241293  0.00389560    -0.74000
O102        O  0.11765687  0.92975922  0.03937262    -0.73600
O103        O  0.14774883  0.88522918  0.90379232    -0.74200
O104        O  0.19807146  0.86642719  0.06239696    -0.73600
O105        O  0.13844687  0.80703830  0.98955609    -0.74300
O106        O  0.19693153  0.88319675  0.98369970    -0.73700
O107        O  0.16567394  0.81555779  0.05299224    -0.74200
O108        O  0.14922695  0.85855232  0.14329130    -0.74100
O109        O  0.11833824  0.88839873  0.13500216    -0.73900
C110        C  0.06824352  0.86102861  0.02419198     0.77900
C111        C  0.13150140  0.86960381  0.88314038     0.78400
C112        C  0.13308603  0.94300744  0.01167639     0.77400
C113        C  0.20949518  0.87385943  0.02165159     0.77700
C114        C  0.15694826  0.79995337  0.01872501     0.78900
C115        C  0.13204935  0.87348924  0.16294184     0.77900
Zn116      Zn  0.41196138  0.85278426  0.94509973     1.49700
Zn117      Zn  0.40577664  0.89311701  0.03946331     1.49400
Zn118      Zn  0.36214441  0.88754931  0.95689044     1.49100
Zn119      Zn  0.37146085  0.83941687  0.03335826     1.49500
O120        O  0.38788526  0.86816088  0.99437887    -1.83300
O121        O  0.44768643  0.86523713  0.95779988    -0.74000
O122        O  0.39602234  0.93184515  0.02315722    -0.73800
O123        O  0.36593034  0.88217012  0.88198021    -0.73300
O124        O  0.44447248  0.88716069  0.03155214    -0.74000
O125        O  0.40200824  0.85939523  0.87152253    -0.73600
O126        O  0.36339001  0.92651791  0.96951844    -0.74200
O127        O  0.33246480  0.83873001  0.02140907    -0.73600
O128        O  0.39539860  0.88556228  0.11356597    -0.74300
O129        O  0.32740555  0.87553763  0.97588466    -0.73700
O130        O  0.37387636  0.84771857  0.10843740    -0.74200
O131        O  0.39015347  0.80391852  0.02145846    -0.74100
O132        O  0.41599411  0.81395504  0.95659267    -0.73900
C133        C  0.45811245  0.87611260  0.99660762     0.77900
C134        C  0.37797622  0.94153020  0.99568197     0.78400
C135        C  0.38252093  0.87121958  0.85311161     0.77400
C136        C  0.31815172  0.85608716  0.00033217     0.77700
C137        C  0.38289101  0.86679284  0.13485543     0.78900
C138        C  0.40782118  0.79747080  0.98954251     0.77900
Zn139      Zn  0.08695343  0.10480370  0.96111192     1.49700
Zn140      Zn  0.13206706  0.10752050  0.04191428     1.49400
Zn141      Zn  0.12314487  0.15672594  0.96904208     1.49100
Zn142      Zn  0.08321440  0.14225090  0.05871538     1.49500
O143        O  0.10639204  0.12798620  0.00700909    -1.83300
O144        O  0.09434160  0.06568847  0.97550690    -0.74000
O145        O  0.16657837  0.11769946  0.01828608    -0.73800
O146        O  0.11803165  0.15026412  0.89392361    -0.73300
O147        O  0.12819386  0.06912670  0.02727613    -0.74000
O148        O  0.09650028  0.11247868  0.88697474    -0.73600
O149        O  0.16265377  0.15579696  0.97699040    -0.74200
O150        O  0.08104266  0.18118913  0.05219124    -0.73600
O151        O  0.13173435  0.11348212  0.11803894    -0.74300
O152        O  0.10625136  0.19233882  0.98679723    -0.73700
O153        O  0.09525648  0.13508737  0.13053846    -0.74200
O154        O  0.04636954  0.13203612  0.04608810    -0.74100
O155        O  0.04923217  0.11307844  0.96930797    -0.73900
C156        C  0.11253075  0.05520526  0.00125824     0.77900
C157        C  0.17655431  0.13720373  0.99511492     0.78400
C158        C  0.10845634  0.13180630  0.86655342     0.77400
C159        C  0.08962455  0.19833570  0.02115443     0.77700
C160        C  0.11572802  0.12464171  0.14797266     0.78900
C161        C  0.03583042  0.12352729  0.00511188     0.77900
Zn162      Zn  0.33389995  0.14482437  0.91830262     1.49700
Zn163      Zn  0.33827951  0.10624032  0.01439461     1.49400
Zn164      Zn  0.38195244  0.10656941  0.93109297     1.49100
Zn165      Zn  0.37559533  0.15721080  0.00402019     1.49500
O166        O  0.35747392  0.12876913  0.96725859    -1.83300
O167        O  0.29745937  0.13318337  0.93136274    -0.74000
O168        O  0.34592136  0.06694207  0.00338364    -0.73800
O169        O  0.37914566  0.11130449  0.85458885    -0.73300
O170        O  0.30029329  0.11436294  0.00801503    -0.74000
O171        O  0.34580113  0.13820308  0.84523998    -0.73600
O172        O  0.37953176  0.06805136  0.95067824    -0.74200
O173        O  0.41452665  0.15626386  0.98906338    -0.73600
O174        O  0.34922429  0.11401559  0.08697582    -0.74300
O175        O  0.41711789  0.11723754  0.95015062    -0.73700
O176        O  0.37407751  0.14942053  0.07952235    -0.74200
O177        O  0.35736286  0.19314816  0.99331054    -0.74100
O178        O  0.33019303  0.18409511  0.93009681    -0.73900
C179        C  0.28688617  0.12461376  0.97225586     0.77900
C180        C  0.36413996  0.05530163  0.97943067     0.78400
C181        C  0.36433825  0.12485445  0.82605242     0.77400
C182        C  0.42785528  0.13704709  0.97112029     0.77700
C183        C  0.36362905  0.13161234  0.10698212     0.78900
C184        C  0.33927561  0.20023898  0.96299348     0.77900
Zn185      Zn  0.25535532  0.39805854  0.53430156     1.49700
Zn186      Zn  0.20933863  0.35979068  0.54827149     1.49400
Zn187      Zn  0.21117138  0.39882908  0.45085490     1.49100
Zn188      Zn  0.24888798  0.34751580  0.45957865     1.49500
O189        O  0.23120383  0.37608413  0.49731036    -1.83300
O190        O  0.25273566  0.39527471  0.61150383    -0.74000
O191        O  0.17315217  0.37032678  0.53697408    -0.73800
O192        O  0.22100572  0.43813249  0.45842229    -0.73300
O193        O  0.22103599  0.36649134  0.62095617    -0.74000
O194        O  0.25368651  0.43571792  0.51266575    -0.73600
O195        O  0.17284919  0.39182239  0.46234400    -0.74200
O196        O  0.24668569  0.35558777  0.38508324    -0.73600
O197        O  0.20634572  0.32079499  0.53799085    -0.74300
O198        O  0.22017776  0.38971892  0.37717755    -0.73700
O199        O  0.23048471  0.31138281  0.47000127    -0.74200
O200        O  0.28795413  0.34821695  0.47434426    -0.74100
O201        O  0.29020654  0.38617995  0.51781163    -0.73900
C202        C  0.23869131  0.38094062  0.64014258     0.77900
C203        C  0.16116188  0.38008523  0.49898151     0.78400
C204        C  0.23954178  0.44910579  0.48270002     0.77400
C205        C  0.23515643  0.37250522  0.35745638     0.77700
C206        C  0.21390505  0.30457682  0.50383075     0.78900
C207        C  0.30095979  0.36656993  0.49622326     0.77900
Zn208      Zn  0.00674199  0.39042926  0.55430483     1.49700
Zn209      Zn  0.46136005  0.39577527  0.46323611     1.49400
Zn210      Zn  0.00015888  0.34217612  0.47722679     1.49100
Zn211      Zn  0.45712668  0.35749685  0.55993114     1.49500
O212        O  0.48056336  0.37334047  0.51072162    -1.83300
O213        O  0.00282121  0.42926752  0.54351724    -0.74000
O214        O  0.47143283  0.38742182  0.38931888    -0.73800
O215        O  0.03911888  0.34185424  0.49238100    -0.73300
O216        O  0.46903470  0.43517252  0.47644628    -0.74000
O217        O  0.04145216  0.38153217  0.52946292    -0.73600
O218        O  0.49788368  0.35327027  0.39816517    -0.74200
O219        O  0.45108970  0.31943639  0.54255962    -0.73600
O220        O  0.42340077  0.38791114  0.47242936    -0.74300
O221        O  0.48013994  0.30991138  0.48286127    -0.73700
O222        O  0.42175304  0.37244956  0.55231150    -0.74200
O223        O  0.47006597  0.36039271  0.63306138    -0.74100
O224        O  0.00532522  0.38352747  0.62953571    -0.73900
C225        C  0.48553794  0.44636896  0.50571219     0.77900
C226        C  0.48653797  0.37014447  0.37007919     0.78400
C227        C  0.05211780  0.36185359  0.50780984     0.77400
C228        C  0.46072360  0.30333437  0.51028881     0.77700
C229        C  0.41063576  0.37980820  0.51121815     0.78900
C230        C  0.48803972  0.37435642  0.65247066     0.77900
Zn231      Zn  0.03323497  0.64777284  0.45841991     1.49700
Zn232      Zn  0.03206020  0.60860641  0.55505893     1.49400
Zn233      Zn  0.49490186  0.65967437  0.54479771     1.49100
Zn234      Zn  0.48691693  0.61264664  0.46510062     1.49500
O235        O  0.01142901  0.63097961  0.50910159    -1.83300
O236        O  0.06929044  0.63615344  0.46674022    -0.74000
O237        O  0.02237902  0.61736354  0.62881871    -0.73800
O238        O  0.01201948  0.69512302  0.53962893    -0.73300
O239        O  0.07035119  0.61671223  0.54312414    -0.74000
O240        O  0.03720704  0.68632345  0.47303425    -0.73600
O241        O  0.49513382  0.64780278  0.61789050    -0.74200
O242        O  0.45231035  0.62479962  0.48290043    -0.73600
O243        O  0.02389478  0.56867025  0.54460438    -0.74300
O244        O  0.45661951  0.66253744  0.52655112    -0.73700
O245        O  0.48938658  0.57420104  0.48047909    -0.74200
O246        O  0.48909704  0.61807165  0.38899641    -0.74100
O247        O  0.02174121  0.64174733  0.38507959    -0.73900
C248        C  0.08182156  0.62725670  0.50481077     0.77900
C249        C  0.00573261  0.63289523  0.64865120     0.78400
C250        C  0.02966155  0.70215226  0.50798631     0.77400
C251        C  0.44269726  0.64513365  0.50411454     0.77700
C252        C  0.00650620  0.55725094  0.51768835     0.78900
C253        C  0.00426456  0.62673402  0.36696513     0.77900
Zn254      Zn  0.23943152  0.61068401  0.52395139     1.49700
Zn255      Zn  0.24320102  0.66181758  0.45345514     1.49400
Zn256      Zn  0.28388026  0.65013649  0.54064342     1.49100
Zn257      Zn  0.28437399  0.61370987  0.44262525     1.49500
O258        O  0.26255332  0.63407362  0.48906518    -1.83300
O259        O  0.20404821  0.61998931  0.50742015    -0.80400
O260        O  0.26265365  0.69796533  0.46104608    -0.73800
O261        O  0.27053447  0.64480421  0.61203635    -0.73300
O262        O  0.20478811  0.66088899  0.47645612    -0.74000
O263        O  0.24049594  0.61430356  0.60059516    -0.73600
O264        O  0.28781542  0.68838098  0.52726764    -0.74200
O265        O  0.32174330  0.62477106  0.45378068    -0.73600
O266        O  0.24279971  0.65239612  0.37809279    -0.74300
O267        O  0.32011331  0.63830552  0.53490560    -0.73700
O268        O  0.27362512  0.62197986  0.36964432    -0.74200
O269        O  0.27922661  0.57352122  0.45281796    -0.74100
O270        O  0.24483760  0.57322416  0.50381923    -0.73900
C271        C  0.19242919  0.64083698  0.49379595     0.77900
C272        C  0.28012221  0.70451592  0.49342514     0.78400
C273        C  0.25321266  0.62960563  0.62988149     0.77400
C274        C  0.33289658  0.63320121  0.49438779     0.77700
C275        C  0.25629515  0.63681086  0.35051701     0.78900
C276        C  0.26136702  0.56116258  0.47652760     0.77900
Zn277      Zn  0.04011216  0.35242766  0.06631570     1.49700
Zn278      Zn  0.03573411  0.39056285  0.96862605     1.49400
Zn279      Zn  0.49880132  0.33929266  0.96918454     1.49100
Zn280      Zn  0.49255554  0.38867203  0.04677293     1.49500
O281        O  0.01695895  0.36776663  0.01603737    -1.83300
O282        O  0.07628535  0.36249019  0.05082674    -0.74000
O283        O  0.02577097  0.38154529  0.89597080    -0.73800
O284        O  0.01714278  0.30368528  0.99022658    -0.73300
O285        O  0.07370060  0.38390173  0.97636702    -0.74000
O286        O  0.04235909  0.31354724  0.05657175    -0.73600
O287        O  0.50233000  0.34642086  0.89395546    -0.74200
O288        O  0.45759012  0.37853643  0.02683855    -0.73600
O289        O  0.02692906  0.42965986  0.97788221    -0.74300
O290        O  0.45940618  0.34162793  0.98006263    -0.73700
O291        O  0.49519407  0.42707408  0.03072476    -0.74200
O292        O  0.49505679  0.38341456  0.12286229    -0.74100
O293        O  0.03036183  0.36026737  0.14034052    -0.73900
C294        C  0.08675361  0.37249041  0.01123554     0.77900
C295        C  0.01227860  0.36330895  0.87545917     0.78400
C296        C  0.03422414  0.29723596  0.02308855     0.77400
C297        C  0.44660063  0.36011071  0.00199243     0.77700
C298        C  0.00887245  0.44050363  0.00360316     0.78900
C299        C  0.01183125  0.37365690  0.15911690     0.77900
Zn300      Zn  0.24839012  0.34387316  0.96015743     1.49700
Zn301      Zn  0.24287700  0.39250613  0.03650699     1.49400
Zn302      Zn  0.28945390  0.35455824  0.04788789     1.49100
Zn303      Zn  0.28656876  0.39503283  0.95372906     1.49500
O304        O  0.26696619  0.37142771  0.99853286    -1.83300
O305        O  0.20951628  0.34455520  0.97805271    -0.74000
O306        O  0.24483922  0.38621502  0.11126347    -0.73800
O307        O  0.29438034  0.31620307  0.03066216    -0.73300
O308        O  0.20780100  0.38413888  0.01543871    -0.74000
O309        O  0.26701278  0.30774026  0.96742956    -0.73600
O310        O  0.27745455  0.35872611  0.12139672    -0.74200
O311        O  0.32506794  0.38708429  0.96340945    -0.73600
O312        O  0.24665902  0.43078336  0.02556049    -0.74300
O313        O  0.32495308  0.36831087  0.04061752    -0.73700
O314        O  0.27803135  0.43439415  0.96870613    -0.74200
O315        O  0.27575275  0.38801636  0.87978027    -0.74100
O316        O  0.24943882  0.35351861  0.88509616    -0.73900
C317        C  0.19673648  0.36434212  0.99533805     0.77900
C318        C  0.25914908  0.37243943  0.14009783     0.78400
C319        C  0.28544295  0.30050065  0.99682758     0.77400
C320        C  0.33697905  0.37735711  0.00194805     0.77700
C321        C  0.26094930  0.44500511  0.99763152     0.78900
C322        C  0.26058032  0.37131990  0.85866595     0.77900
Zn323      Zn  0.25578957  0.61156011  0.94960405     1.49700
Zn324      Zn  0.25110330  0.65967832  0.02674768     1.49400
Zn325      Zn  0.20727679  0.64600840  0.94400369     1.49100
Zn326      Zn  0.21484857  0.60740667  0.03917194     1.49500
O327        O  0.23213843  0.63125054  0.99112847    -1.83300
O328        O  0.29070976  0.62187203  0.96603282    -0.74000
O329        O  0.23213035  0.69481943  0.01713377    -0.73800
O330        O  0.21627241  0.64143436  0.86884928    -0.73300
O331        O  0.28940135  0.66045111  0.00661524    -0.74000
O332        O  0.25250341  0.61871004  0.87534884    -0.73600
O333        O  0.20282857  0.68425891  0.95874332    -0.74200
O334        O  0.17554577  0.61206841  0.03373206    -0.73600
O335        O  0.25133720  0.65211317  0.10269492    -0.74300
O336        O  0.17238371  0.63228084  0.95846648    -0.73700
O337        O  0.22597308  0.61694822  0.11194805    -0.74200
O338        O  0.22575650  0.56888844  0.02437091    -0.74100
O339        O  0.25375555  0.57296684  0.96071987    -0.73900
C340        C  0.30205336  0.64167879  0.98548014     0.77900
C341        C  0.21275735  0.70096545  0.98945802     0.78400
C342        C  0.23587972  0.63059465  0.84849901     0.77400
C343        C  0.16193354  0.62210152  0.99788141     0.77700
C344        C  0.24060766  0.63479411  0.13089898     0.78900
C345        C  0.24159667  0.55860585  0.99229463     0.77900
Zn346      Zn  0.45814820  0.64290683  0.04797231     1.49700
Zn347      Zn  0.00379249  0.60280493  0.04340661     1.49400
Zn348      Zn  0.46100800  0.60277790  0.95376921     1.49100
Zn349      Zn  0.99902382  0.65275003  0.97043958     1.49500
O350        O  0.48081512  0.62623921  0.99897252    -1.83300
O351        O  0.46964273  0.63910097  0.12152911    -0.74000
O352        O  0.99925471  0.56503297  0.02558246    -0.73800
O353        O  0.42350966  0.61198527  0.96114974    -0.73300
O354        O  0.00201757  0.60788297  0.11954886    -0.74000
O355        O  0.42221261  0.63075481  0.03842206    -0.73600
O356        O  0.46806388  0.56342434  0.96887874    -0.74200
O357        O  0.49713590  0.64431300  0.88576387    -0.73600
O358        O  0.03935939  0.61179605  0.02576963    -0.74300
O359        O  0.47072913  0.60968234  0.87965539    -0.73700
O360        O  0.03783627  0.65090110  0.98757602    -0.74200
O361        O  0.48134823  0.69035154  0.96860272    -0.74100
O362        O  0.45442175  0.68101411  0.03199672    -0.73900
C363        C  0.48831121  0.62648893  0.14136106     0.77900
C364        C  0.48564713  0.55291567  0.99629043     0.78400
C365        C  0.41100706  0.62271630  0.99783556     0.77400
C366        C  0.48553450  0.62678895  0.85929868     0.77700
C367        C  0.05064592  0.63167513  0.00662549     0.78900
C368        C  0.46316818  0.69716218  0.99909850     0.77900
C369        C  0.34214415  0.62310691  0.94953716    -0.11500
C370        C  0.33049552  0.64106225  0.98393660     0.05500
C371        C  0.34600740  0.65420895  0.02021640    -0.06800
C372        C  0.37195947  0.64735639  0.02466080    -0.07500
C373        C  0.38319079  0.62811074  0.99241276    -0.02100
C374        C  0.36810495  0.61658585  0.95334510     0.04700
N375        N  0.37844527  0.59761775  0.91810721     0.67300
H376        H  0.33082478  0.61318768  0.92038646     0.16200
H377        H  0.38342013  0.65752705  0.05323136     0.15900
N378        N  0.33585822  0.67414649  0.05350410     0.75000
O379        O  0.37663211  0.57330627  0.92818840    -0.38500
O380        O  0.38388642  0.60467106  0.87295059    -0.38400
O381        O  0.33583921  0.67024295  0.10128468    -0.39100
O382        O  0.33385321  0.69748888  0.03707650    -0.39200
C383        C  0.12071390  0.64227028  0.96968142    -0.11500
C384        C  0.13341613  0.62416828  0.00203717     0.05500
C385        C  0.11866290  0.61008429  0.03827249    -0.06800
C386        C  0.09194223  0.61368158  0.04019546    -0.07500
C387        C  0.07923852  0.63123815  0.00672403    -0.02100
C388        C  0.09407534  0.64594720  0.97182568     0.04700
N389        N  0.08244311  0.66405896  0.93694547     0.67300
H390        H  0.13147743  0.65388824  0.94229282     0.16200
H391        H  0.08104462  0.60225134  0.06769672     0.15900
N392        N  0.13019170  0.59150223  0.07240194     0.75000
O393        O  0.08161266  0.68832678  0.94830344    -0.38500
O394        O  0.07784405  0.65678410  0.89144967    -0.38400
O395        O  0.13342455  0.59776258  0.11892478    -0.39100
O396        O  0.13150278  0.56748923  0.05927864    -0.39200
C397        C  0.26915157  0.49000258  0.96143986    -0.11500
C398        C  0.25662362  0.47421609  0.99790045     0.05500
C399        C  0.23895533  0.48657548  0.03208329    -0.06800
C400        C  0.23419868  0.51375579  0.02888693    -0.07500
C401        C  0.24665558  0.52954126  0.99243265    -0.02100
C402        C  0.26441167  0.51725991  0.95833545     0.04700
N403        N  0.27788871  0.53197599  0.92004143     0.67300
H404        H  0.28253157  0.48116954  0.93461141     0.16200
H405        H  0.22072932  0.52251064  0.05563898     0.15900
N406        N  0.22562428  0.47205165  0.07084128     0.75000
O407        O  0.30045035  0.53994172  0.92901867    -0.38500
O408        O  0.26952102  0.53219935  0.87457364    -0.38400
O409        O  0.23473714  0.47132890  0.11569860    -0.39100
O410        O  0.20240858  0.46579371  0.06373325    -0.39200
C411        C  0.40561061  0.36732940  0.04655766    -0.11500
C412        C  0.41826975  0.36130118  0.00042399     0.05500
C413        C  0.40424762  0.36168769  0.95411036    -0.06800
C414        C  0.37794386  0.36818336  0.95483801    -0.07500
C415        C  0.36531711  0.37425501  0.00126656    -0.02100
C416        C  0.37953117  0.37371184  0.04746385     0.04700
N417        N  0.36804893  0.38050633  0.09566485     0.67300
H418        H  0.41626386  0.36777707  0.08222798     0.16200
H419        H  0.36731925  0.36806258  0.91917429     0.15900
N420        N  0.41660315  0.35680707  0.90596139     0.75000
O421        O  0.36131750  0.36234699  0.12593558    -0.38500
O422        O  0.37020375  0.40383936  0.11250807    -0.38400
O423        O  0.41379499  0.33464248  0.88422521    -0.39100
O424        O  0.42542155  0.37599392  0.88059824    -0.39200
C425        C  0.12898207  0.39109200  0.98695490    -0.11500
C426        C  0.11468100  0.36962896  0.00463838     0.05500
C427        C  0.12719126  0.34545010  0.01519194    -0.06800
C428        C  0.15391682  0.34338724  0.00924663    -0.07500
C429        C  0.16840054  0.36525262  0.99340506    -0.02100
C430        C  0.15562940  0.38924078  0.98184890     0.04700
N431        N  0.16949715  0.41213202  0.96554632     0.67300
H432        H  0.11952464  0.40962842  0.97839530     0.16200
H433        H  0.16341981  0.32498160  0.01855762     0.15900
N434        N  0.11288908  0.32272741  0.03100798     0.75000
O435        O  0.17158260  0.41681723  0.91817729    -0.38500
O436        O  0.17383913  0.43043921  0.99746263    -0.38400
O437        O  0.09817757  0.31114189  0.99964195    -0.39100
O438        O  0.11335742  0.31552437  0.07732825    -0.39200
C439        C  0.01535636  0.51492649  0.98822136    -0.11500
C440        C  0.49049462  0.52414998  0.99439330     0.05500
C441        C  0.47177372  0.50535067  0.00785870    -0.06800
C442        C  0.47834212  0.47847002  0.00948603    -0.07500
C443        C  0.00290628  0.46893408  0.99747062    -0.02100
C444        C  0.02212060  0.48817425  0.99012482     0.04700
N445        N  0.04869274  0.48114788  0.98771626     0.67300
H446        H  0.03043570  0.52951975  0.98430163     0.16200
H447        H  0.46372297  0.46440632  0.02063072     0.15900
N448        N  0.44651292  0.51328204  0.02302916     0.75000
O449        O  0.05957247  0.47924235  0.94451892    -0.38500
O450        O  0.06226400  0.48286934  0.02773375    -0.38400
O451        O  0.42786948  0.50920697  0.99304897    -0.39100
O452        O  0.44212626  0.51858248  0.06962993    -0.39200
C453        C  0.27249940  0.64206026  0.26187266    -0.11500
C454        C  0.25199829  0.63616338  0.29468360     0.05500
C455        C  0.22772781  0.63019202  0.27362862    -0.06800
C456        C  0.22450215  0.62945612  0.22021875    -0.07500
C457        C  0.24495896  0.63556708  0.18712147    -0.02100
C458        C  0.26905652  0.64237314  0.20855706     0.04700
N459        N  0.29029647  0.64965649  0.17693901     0.67300
H460        H  0.29111427  0.64704293  0.27774420     0.16200
H461        H  0.20583220  0.62450105  0.20462132     0.15900
N462        N  0.20627656  0.62437296  0.30593385     0.75000
O463        O  0.29491099  0.67388530  0.17009837    -0.38500
O464        O  0.30766678  0.63287645  0.16778487    -0.38400
O465        O  0.18880925  0.64141741  0.31166166    -0.39100
O466        O  0.20213670  0.60080030  0.31929138    -0.39200
C467        C  0.26777802  0.63774311  0.71901911    -0.11500
C468        C  0.24797213  0.62991394  0.68569886     0.05500
C469        C  0.22369146  0.62311314  0.70650152    -0.06800
C470        C  0.21975025  0.62434149  0.75970236    -0.07500
C471        C  0.23980906  0.63160515  0.79270291    -0.02100
C472        C  0.26398040  0.63836874  0.77205993     0.04700
N473        N  0.28472206  0.64658487  0.80442225     0.67300
H474        H  0.28644870  0.64308299  0.70398112     0.16200
H475        H  0.20119952  0.61899293  0.77531401     0.15900
N476        N  0.20272610  0.61530602  0.67436479     0.75000
O477        O  0.30139283  0.62993010  0.81806071    -0.38500
O478        O  0.28924575  0.67093418  0.81021207    -0.38400
O479        O  0.19689047  0.59114175  0.67074939    -0.39100
O480        O  0.18702258  0.63252778  0.65896009    -0.39200
C481        C  0.40282297  0.64238306  0.45389004    -0.11500
C482        C  0.41459483  0.64746459  0.50137793     0.05500
C483        C  0.39935650  0.64943964  0.54576115    -0.06800
C484        C  0.37286697  0.64476814  0.54247921    -0.07500
C485        C  0.36106970  0.63826411  0.49525314    -0.02100
C486        C  0.37632922  0.63809648  0.45028539     0.04700
N487        N  0.36543295  0.63373997  0.40059837     0.67300
H488        H  0.41442141  0.64101155  0.41951011     0.16200
H489        H  0.36168608  0.64557829  0.57744825     0.15900
N490        N  0.41068088  0.65408987  0.59496117     0.75000
O491        O  0.35781428  0.65328793  0.37481536    -0.38500
O492        O  0.36874614  0.61176783  0.37841481    -0.38400
O493        O  0.40848164  0.67653879  0.61584853    -0.39100
O494        O  0.41820935  0.63474054  0.62138521    -0.39200
C495        C  0.15336658  0.62236590  0.53512704    -0.11500
C496        C  0.16400361  0.64040205  0.49972110     0.05500
C497        C  0.14724147  0.65494201  0.46833891    -0.06800
C498        C  0.12071756  0.65008554  0.47060432    -0.07500
C499        C  0.11018710  0.63114444  0.50438760    -0.02100
C500        C  0.12688763  0.61768246  0.53778836     0.04700
N501        N  0.11756763  0.59847180  0.57334601     0.67300
H502        H  0.16576542  0.61119000  0.56033095     0.16200
H503        H  0.10831360  0.66138987  0.44565327     0.15900
N504        N  0.15671515  0.67404423  0.43278460     0.75000
O505        O  0.11583492  0.57459559  0.55947538    -0.38500
O506        O  0.11645000  0.60421098  0.62051576    -0.38400
O507        O  0.15688490  0.66859156  0.38546820    -0.39100
O508        O  0.15890713  0.69783327  0.44695446    -0.39200
C509        C  0.47170761  0.63317849  0.23006192    -0.11500
C510        C  0.49273059  0.62828167  0.19748515     0.05500
C511        C  0.01723258  0.62249518  0.22456039    -0.06800
C512        C  0.02084146  0.62456848  0.27770543    -0.07500
C513        C  0.99974559  0.62566660  0.31114264    -0.02100
C514        C  0.47489132  0.63474183  0.28336521     0.04700
N515        N  0.45295099  0.63997576  0.31490573     0.67300
H516        H  0.45262943  0.63549182  0.21420468     0.16200
H517        H  0.04018923  0.62483617  0.29292937     0.15900
N518        N  0.03934630  0.62130074  0.19198608     0.75000
O519        O  0.44644359  0.66361259  0.32356087    -0.38500
O520        O  0.43722520  0.62158647  0.32417473    -0.38400
O521        O  0.05095235  0.64236973  0.18039485    -0.39100
O522        O  0.05018978  0.59934213  0.18407911    -0.39200
C523        C  0.47661844  0.63025759  0.71535585    -0.11500
C524        C  0.00059070  0.63169641  0.70438869     0.05500
C525        C  0.02064289  0.63103587  0.74069102    -0.06800
C526        C  0.01487202  0.63047755  0.79318357    -0.07500
C527        C  0.49044518  0.62598232  0.80380994    -0.02100
C528        C  0.47059592  0.62897739  0.76767381     0.04700
N529        N  0.44445069  0.63204277  0.78354029     0.67300
H530        H  0.46130889  0.63319405  0.68800678     0.16200
H531        H  0.03045793  0.63037981  0.82062587     0.15900
N532        N  0.04696539  0.63167201  0.72502871     0.75000
O533        O  0.43551869  0.65496945  0.79053823    -0.38500
O534        O  0.42919368  0.61272753  0.77958219    -0.38400
O535        O  0.05922971  0.65318534  0.72724768    -0.39100
O536        O  0.05915093  0.61024103  0.72018347    -0.39200
C537        C  0.48006891  0.37748638  0.22524340    -0.11500
C538        C  0.00726549  0.37449269  0.21567046     0.05500
C539        C  0.02370756  0.36200925  0.25131966    -0.06800
C540        C  0.01699408  0.36123853  0.30338327    -0.07500
C541        C  0.49209645  0.37005561  0.31422323    -0.02100
C542        C  0.47354549  0.37717379  0.27743821     0.04700
N543        N  0.44760901  0.38274643  0.29201848     0.67300
H544        H  0.46532104  0.38265715  0.19781818     0.16200
H545        H  0.02987016  0.35140166  0.32969766     0.15900
N546        N  0.04737678  0.35006479  0.23576795     0.75000
O547        O  0.44024498  0.40645188  0.29545303    -0.38500
O548        O  0.43108306  0.36447305  0.29036090    -0.38400
O549        O  0.06811826  0.36270632  0.24148855    -0.39100
O550        O  0.04816335  0.32545587  0.22770354    -0.39200
C551        C  0.49157456  0.34765838  0.73178001    -0.11500
C552        C  0.49390060  0.37231527  0.70778146     0.05500
C553        C  0.00851486  0.38916276  0.73983749    -0.06800
C554        C  0.01414257  0.38671527  0.79201141    -0.07500
C555        C  0.00756394  0.36378987  0.81929755    -0.02100
C556        C  0.49862425  0.34434498  0.78323146     0.04700
N557        N  0.49691679  0.31850679  0.80499639     0.67300
H558        H  0.48485481  0.33070455  0.71018775     0.16200
H559        H  0.02316115  0.40323653  0.81138102     0.15900
N560        N  0.01443017  0.41357577  0.71500670     0.75000
O561        O  0.47538505  0.30993617  0.81991253    -0.38500
O562        O  0.51527928  0.30251315  0.79876880    -0.38400
O563        O  0.99884421  0.43260360  0.71860707    -0.39100
O564        O  0.03715104  0.41795166  0.70024641    -0.39200
C565        C  0.48169382  0.51996546  0.47321306    -0.11500
C566        C  0.00282346  0.52791918  0.51807535     0.05500
C567        C  0.01121137  0.51154793  0.55850461    -0.06800
C568        C  0.00576153  0.48431079  0.55738201    -0.07500
C569        C  0.48910060  0.47565710  0.50632934    -0.02100
C570        C  0.47598857  0.49285854  0.47282189     0.04700
N571        N  0.45672413  0.48335704  0.43826169     0.67300
H572        H  0.47143761  0.53256779  0.44677766     0.16200
H573        H  0.01230795  0.47227357  0.58902480     0.15900
N574        N  0.02468516  0.52219608  0.60168715     0.75000
O575        O  0.43351806  0.48307395  0.45246717    -0.38500
O576        O  0.46202501  0.48068943  0.39122025    -0.38400
O577        O  0.01259389  0.52679817  0.64280862    -0.39100
O578        O  0.04893010  0.52138220  0.60241399    -0.39200
C579        C  0.34032951  0.37222841  0.54677853    -0.11500
C580        C  0.32923315  0.36605097  0.49909903     0.05500
C581        C  0.34499054  0.36494501  0.45510795    -0.06800
C582        C  0.37139592  0.37027674  0.45955895    -0.07500
C583        C  0.38240832  0.37680852  0.50734979    -0.02100
C584        C  0.36653236  0.37769126  0.55125952     0.04700
N585        N  0.37633871  0.38569502  0.60018574     0.67300
H586        H  0.32830801  0.37391051  0.58061903     0.16200
H587        H  0.38332040  0.36916499  0.42553665     0.15900
N588        N  0.33434095  0.36006357  0.40540043     0.75000
O589        O  0.37657784  0.40993277  0.61192835    -0.38500
O590        O  0.37950633  0.36866168  0.63485664    -0.38400
O591        O  0.32923643  0.37935171  0.37659229    -0.39100
O592        O  0.33566571  0.33712514  0.38632248    -0.39200
C593        C  0.12404258  0.35030158  0.51267949    -0.11500
C594        C  0.13321522  0.37514971  0.49648325     0.05500
C595        C  0.11562165  0.39399874  0.47848494    -0.06800
C596        C  0.08927733  0.38848518  0.48036919    -0.07500
C597        C  0.08002730  0.36411493  0.49875411    -0.02100
C598        C  0.09769446  0.34452681  0.51327611     0.04700
N599        N  0.08930581  0.31925399  0.53099419     0.67300
H600        H  0.13741395  0.33528548  0.52516895     0.16200
H601        H  0.07588302  0.40365123  0.46868554     0.15900
N602        N  0.12398086  0.41933914  0.46109251     0.75000
O603        O  0.08808097  0.30023053  0.49955312    -0.38500
O604        O  0.08944004  0.31449612  0.57852208    -0.38400
O605        O  0.12492884  0.42389226  0.41352274    -0.39100
O606        O  0.12494735  0.43841538  0.49244255    -0.39200
C607        C  0.26313342  0.36007480  0.28401725    -0.11500
C608        C  0.24055308  0.37249500  0.30159586     0.05500
C609        C  0.22456903  0.38526724  0.26574142    -0.06800
C610        C  0.23114661  0.38501670  0.21369493    -0.07500
C611        C  0.25365750  0.37244068  0.19601059    -0.02100
C612        C  0.26989573  0.36012288  0.23206634     0.04700
N613        N  0.29370405  0.34824908  0.21716652     0.67300
H614        H  0.27606275  0.35070656  0.31087042     0.16200
H615        H  0.21830870  0.39464587  0.18703264     0.15900
N616        N  0.20132515  0.39815029  0.28104952     0.75000
O617        O  0.31405332  0.36185086  0.21839759    -0.38500
O618        O  0.29520546  0.32342206  0.21321460    -0.38400
O619        O  0.20089300  0.42303086  0.28490420    -0.39100
O620        O  0.18039675  0.38553017  0.27949824    -0.39200
C621        C  0.23462713  0.35767421  0.72369409    -0.11500
C622        C  0.24375504  0.37965576  0.69636116     0.05500
C623        C  0.25869055  0.39870468  0.72282316    -0.06800
C624        C  0.26415996  0.39539898  0.77516896    -0.07500
C625        C  0.25513288  0.37329537  0.80250146    -0.02100
C626        C  0.24018704  0.35425794  0.77582436     0.04700
N627        N  0.23079839  0.33096609  0.80045746     0.67300
H628        H  0.22350514  0.34256537  0.70430789     0.16200
H629        H  0.27534906  0.41046215  0.79450448     0.15900
N630        N  0.26802403  0.42187354  0.69768744     0.75000
O631        O  0.20778379  0.33020633  0.81578911    -0.38500
O632        O  0.24335636  0.30971670  0.79646617    -0.38400
O633        O  0.25534244  0.44307564  0.70091774    -0.39100
O634        O  0.29101890  0.42261025  0.68223405    -0.39200
C635        C  0.26910524  0.48750763  0.49638972    -0.11500
C636        C  0.24573077  0.47775610  0.47612589     0.05500
C637        C  0.22923896  0.49567689  0.45085184    -0.06800
C638        C  0.23547382  0.52265917  0.44941084    -0.07500
C639        C  0.25828085  0.53229122  0.47139340    -0.02100
C640        C  0.27546470  0.51442646  0.49408721     0.04700
N641        N  0.29863204  0.52345223  0.51788496     0.67300
H642        H  0.28240931  0.47431989  0.51521054     0.16200
H643        H  0.22212381  0.53630299  0.43192912     0.15900
N644        N  0.20578967  0.48711950  0.42758018     0.75000
O645        O  0.29833320  0.52993191  0.56474320    -0.38500
O646        O  0.31990060  0.51934656  0.49590041    -0.38400
O647        O  0.18472997  0.49136010  0.45025691    -0.39100
O648        O  0.20569711  0.48082431  0.38062300    -0.39200
C649        C  0.29623452  0.26101755  0.94200681    -0.11500
C650        C  0.29832318  0.27419912  0.98947126     0.05500
C651        C  0.31501401  0.26333369  0.02690832    -0.06800
C652        C  0.32898852  0.24015564  0.01636595    -0.07500
C653        C  0.32678341  0.22683299  0.96910060    -0.02100
C654        C  0.31014638  0.23772226  0.93153765     0.04700
N655        N  0.30746902  0.22582273  0.88193791     0.67300
H656        H  0.28415895  0.26912098  0.91218852     0.16200
H657        H  0.34101104  0.23208610  0.04630151     0.15900
N658        N  0.31744131  0.27498542  0.07678330     0.75000
O659        O  0.28815687  0.21144697  0.87270853    -0.38500
O660        O  0.32061021  0.23459785  0.84496682    -0.38400
O661        O  0.30369855  0.26646465  0.11310130    -0.39100
O662        O  0.33668962  0.28930992  0.08681763    -0.39200
C663        C  0.49740476  0.11439485  0.96213434    -0.11500
C664        C  0.00771867  0.12731446  0.99696080     0.05500
C665        C  0.99162151  0.14028546  0.03314141    -0.06800
C666        C  0.46805313  0.15152570  0.01598209    -0.07500
C667        C  0.45627524  0.13622009  0.97747622    -0.02100
C668        C  0.47155629  0.11787842  0.94973153     0.04700
N669        N  0.46149768  0.10297997  0.90757045     0.67300
H670        H  0.00900143  0.11068147  0.92024944     0.16200
H671        H  0.45686925  0.16566690  0.03772901     0.15900
N672        N  0.00097006  0.14846992  0.08227528     0.75000
O673        O  0.46577470  0.11100336  0.86258417    -0.38500
O674        O  0.45523266  0.07913489  0.91433619    -0.38400
O675        O  0.00631743  0.17250770  0.08996040    -0.39100
O676        O  0.99860280  0.13316372  0.12012473    -0.39200
C677        C  0.21911165  0.12445175  0.02885889    -0.11500
C678        C  0.20495482  0.13710701  0.99016171     0.05500
C679        C  0.21799377  0.14624455  0.94623983    -0.06800
C680        C  0.24450601  0.14163404  0.94088771    -0.07500
C681        C  0.25859124  0.12813712  0.97898742    -0.02100
C682        C  0.24552321  0.12004893  0.02392963     0.04700
N683        N  0.25854732  0.10731431  0.06530268     0.67300
H684        H  0.20957474  0.11759494  0.06305591     0.16200
H685        H  0.25394603  0.14856054  0.90668872     0.15900
N686        N  0.20455749  0.15913632  0.90561127     0.75000
O687        O  0.26624572  0.12097048  0.10296159    -0.38500
O688        O  0.25708904  0.08251800  0.06962317    -0.38400
O689        O  0.20599329  0.18394893  0.90159266    -0.39100
O690        O  0.19626190  0.14564004  0.86825471    -0.39200
C691        C  0.05300197  0.25872650  0.06794767    -0.11500
C692        C  0.04675747  0.27100141  0.02140360     0.05500
C693        C  0.05657969  0.26032767  0.97517434    -0.06800
C694        C  0.07203251  0.23759696  0.97619910    -0.07500
C695        C  0.07771444  0.22493102  0.02268765    -0.02100
C696        C  0.06809522  0.23583550  0.06898036     0.04700
N697        N  0.07394875  0.22427552  0.11758738     0.67300
H698        H  0.04636226  0.26714687  0.10385528     0.16200
H699        H  0.07889183  0.22935987  0.94031346     0.15900
N700        N  0.05197721  0.27292647  0.92706295     0.75000
O701        O  0.09381484  0.23167454  0.14145334    -0.38500
O702        O  0.05681537  0.21144266  0.14114381    -0.38400
O703        O  0.06919743  0.28739282  0.90770811    -0.39100
O704        O  0.03351400  0.26518851  0.89942105    -0.39200
C705        C  0.43656541  0.76310824  0.95031812    -0.11500
C706        C  0.42074558  0.77107116  0.99167229     0.05500
C707        C  0.41986806  0.75482933  0.03560684    -0.06800
C708        C  0.43457452  0.73162202  0.03748857    -0.07500
C709        C  0.45035503  0.72359591  0.99617002    -0.02100
C710        C  0.45108071  0.73968389  0.95200554     0.04700
N711        N  0.46549612  0.73212322  0.90756765     0.67300
H712        H  0.43763434  0.77505007  0.91606421     0.16200
H713        H  0.43345805  0.71973631  0.07181506     0.15900
N714        N  0.40470412  0.76177353  0.07943011     0.75000
O715        O  0.97921226  0.73311987  0.90000230    -0.38500
O716        O  0.00149972  0.75027642  0.96267259    -0.38400
O717        O  0.38357373  0.75012320  0.08694807    -0.39100
O718        O  0.41482572  0.77481438  0.11557510    -0.39200
C719        C  0.39461386  0.98790088  0.00260713    -0.11500
C720        C  0.37388801  0.97072979  0.99314160     0.05500
C721        C  0.34974120  0.98189742  0.97995468    -0.06800
C722        C  0.34682661  0.00943831  0.97715315    -0.07500
C723        C  0.36770500  0.02639607  0.98530448    -0.02100
C724        C  0.39181367  0.01541965  0.99811954     0.04700
N725        N  0.41354195  0.03198993  0.00794172     0.67300
H726        H  0.41325244  0.97994777  0.01260024     0.16200
H727        H  0.32826826  0.01758293  0.96708336     0.15900
N728        N  0.32786727  0.96568377  0.96913533     0.75000
O729        O  0.41765633  0.04019322  0.05303351    -0.38500
O730        O  0.43117270  0.03362070  0.97477960    -0.38400
O731        O  0.31061199  0.96306903  0.00284117    -0.39100
O732        O  0.32293422  0.95954342  0.92314889    -0.39200
C733        C  0.24812743  0.86352139  0.96841448    -0.11500
C734        C  0.23764711  0.86939224  0.01700796     0.05500
C735        C  0.25378187  0.86792185  0.06064004    -0.06800
C736        C  0.27970148  0.86088468  0.05499749    -0.07500
C737        C  0.29007172  0.85550728  0.00643665    -0.02100
C738        C  0.27407126  0.85655286  0.96298166     0.04700
N739        N  0.28410730  0.85050942  0.91312572     0.67300
H740        H  0.23601506  0.86377017  0.93455808     0.16200
H741        H  0.29217524  0.86134117  0.08833969     0.15900
N742        N  0.24466802  0.87537163  0.11043216     0.75000
O743        O  0.29139199  0.82727950  0.90283866    -0.38500
O744        O  0.28889223  0.86892970  0.88201644    -0.38400
O745        O  0.24149519  0.85790346  0.14429971    -0.39100
O746        O  0.24486748  0.89944588  0.12340897    -0.39200
C747        C  0.49801720  0.88562284  0.04644646    -0.11500
C748        C  0.48653492  0.87410504  0.00299060     0.05500
C749        C  0.00117322  0.85274772  0.97127166    -0.06800
C750        C  0.02761413  0.84943787  0.97932641    -0.07500
C751        C  0.03979345  0.86065174  0.02212635    -0.02100
C752        C  0.02477324  0.87456900  0.05857494     0.04700
N753        N  0.03589642  0.88510703  0.10449164     0.67300
H754        H  0.48663955  0.89738329  0.07284313     0.16200
H755        H  0.03882163  0.83887946  0.95077629     0.15900
N756        N  0.49226554  0.84746909  0.92307591     0.75000
O757        O  0.04106086  0.90946143  0.10711674    -0.38500
O758        O  0.03496060  0.87171821  0.14522583    -0.38400
O759        O  0.49545578  0.85948976  0.88117485    -0.39100
O760        O  0.48562749  0.82346173  0.92237756    -0.39200
C761        C  0.19367474  0.76962924  0.03776607    -0.11500
C762        C  0.17038006  0.77404746  0.01130110     0.05500
C763        C  0.16211091  0.75467516  0.97571233    -0.06800
C764        C  0.17671911  0.73169394  0.96801374    -0.07500
C765        C  0.19984805  0.72720617  0.99485498    -0.02100
C766        C  0.20841022  0.74678222  0.02960323     0.04700
N767        N  0.23210040  0.74396118  0.05679681     0.67300
H768        H  0.20098012  0.78429009  0.06447566     0.16200
H769        H  0.16946859  0.71702266  0.94126690     0.15900
N770        N  0.13880744  0.75768060  0.94734252     0.75000
O771        O  0.25318643  0.74811761  0.03417125    -0.38500
O772        O  0.23202538  0.73621801  0.10279591    -0.38400
O773        O  0.13985794  0.76474426  0.90096660    -0.39100
O774        O  0.11830795  0.74767575  0.96450601    -0.39200
C775        C  0.10295180  0.98116221  0.01411513    -0.11500
C776        C  0.12820477  0.97179410  0.00636896     0.05500
C777        C  0.14770134  0.99010416  0.99402540    -0.06800
C778        C  0.14190614  0.01711550  0.99158740    -0.07500
C779        C  0.11679259  0.02637906  0.00012428    -0.02100
C780        C  0.09711462  0.00813097  0.01074586     0.04700
N781        N  0.07146872  0.01672844  0.02121936     0.67300
H782        H  0.08759279  0.96752381  0.02307959     0.16200
H783        H  0.15719000  0.03098668  0.98343931     0.15900
N784        N  0.17365591  0.98186868  0.98588178     0.75000
O785        O  0.05483703  0.01573198  0.98602535    -0.38500
O786        O  0.06427471  0.01960719  0.06720925    -0.38400
O787        O  0.18226133  0.98019547  0.94065158    -0.39100
O788        O  0.18915040  0.98189638  0.02313225    -0.39200
C789        C  0.45224059  0.26373970  0.45535104    -0.11500
C790        C  0.44758508  0.27740273  0.50146241     0.05500
C791        C  0.42824804  0.26753423  0.53479256    -0.06800
C792        C  0.41447716  0.24457176  0.52172398    -0.07500
C793        C  0.41929072  0.23080726  0.47573487    -0.02100
C794        C  0.43828723  0.24098719  0.44202923     0.04700
N795        N  0.44341841  0.22888890  0.39339234     0.67300
H796        H  0.46632921  0.27118272  0.42834449     0.16200
H797        H  0.40042228  0.23707534  0.54874153     0.15900
N798        N  0.42258033  0.28015256  0.58270881     0.75000
O799        O  0.43060035  0.23589232  0.35466595    -0.38500
O800        O  0.46407211  0.21623434  0.38698417    -0.38400
O801        O  0.40271682  0.29433445  0.58665085    -0.39100
O802        O  0.43378155  0.27242711  0.62288796    -0.39200
C803        C  0.36220067  0.11447284  0.24944218    -0.11500
C804        C  0.38079291  0.13189419  0.26948148     0.05500
C805        C  0.39402592  0.14874735  0.23529399    -0.06800
C806        C  0.38790268  0.14844144  0.18293946    -0.07500
C807        C  0.36903284  0.13125121  0.16304705    -0.02100
C808        C  0.35641684  0.11380749  0.19707024     0.04700
N809        N  0.33774997  0.09509321  0.17948800     0.67300
H810        H  0.35205300  0.10100353  0.27443371     0.16200
H811        H  0.39823968  0.16166445  0.15776925     0.15900
N812        N  0.41372585  0.16634670  0.25269184     0.75000
O813        O  0.34473240  0.07178592  0.16904044    -0.38500
O814        O  0.31415008  0.10000581  0.18543639    -0.38400
O815        O  0.43698807  0.15965733  0.24807823    -0.39100
O816        O  0.40825451  0.19018207  0.26212141    -0.39200
C817        C  0.39516632  0.11669514  0.69350123    -0.11500
C818        C  0.37891644  0.13210442  0.66286977     0.05500
C819        C  0.35742354  0.14445477  0.68618819    -0.06800
C820        C  0.35286485  0.14135918  0.73884320    -0.07500
C821        C  0.36921945  0.12603570  0.76965284    -0.02100
C822        C  0.39055656  0.11349374  0.74605710     0.04700
N823        N  0.40819964  0.09778201  0.77466530     0.67300
H824        H  0.41171076  0.10700441  0.67669585     0.16200
H825        H  0.33636006  0.15115488  0.75554903     0.15900
N826        N  0.33950587  0.15962702  0.65701513     0.75000
O827        O  0.40456819  0.07316810  0.77776605    -0.38500
O828        O  0.43007775  0.10711913  0.78505456    -0.38400
O829        O  0.31913930  0.14879985  0.64104077    -0.39100
O830        O  0.34119886  0.18452062  0.65720379    -0.39200
C831        C  0.27668251  0.15709959  0.49377438    -0.11500
C832        C  0.29205643  0.13452171  0.48705524     0.05500
C833        C  0.28013369  0.10926791  0.48955238    -0.06800
C834        C  0.25348674  0.10708214  0.49535371    -0.07500
C835        C  0.23828699  0.12956838  0.50071994    -0.02100
C836        C  0.24997255  0.15477482  0.50044720     0.04700
N837        N  0.23470397  0.17819573  0.50435235     0.67300
H838        H  0.28527237  0.17661536  0.49233730     0.16200
H839        H  0.24467591  0.08765317  0.49655668     0.15900
N840        N  0.29478380  0.08545647  0.48747637     0.75000
O841        O  0.23285326  0.19014281  0.54682781    -0.38500
O842        O  0.22087051  0.18524062  0.46705830    -0.38400
O843        O  0.30294202  0.07550004  0.52871193    -0.39100
O844        O  0.29362150  0.07128305  0.44759857    -0.39200
C845        C  0.03175283  0.14157950  0.44526978    -0.11500
C846        C  0.04218139  0.13814443  0.49434420     0.05500
C847        C  0.02615483  0.12890976  0.53420339    -0.06800
C848        C  0.00017722  0.12354553  0.52465916    -0.07500
C849        C  0.49075179  0.13310168  0.47880595    -0.02100
C850        C  0.50768268  0.14217413  0.43985349     0.04700
N851        N  0.49918291  0.14564796  0.38816158     0.67300
H852        H  0.04400640  0.14757625  0.41405751     0.16200
H853        H  0.48824741  0.12318122  0.55940248     0.15900
N854        N  0.03585969  0.12539884  0.58506042     0.75000
O855        O  0.49489820  0.16867243  0.37186192    -0.38500
O856        O  0.50191671  0.12696823  0.35632782    -0.38400
O857        O  0.03334409  0.14379456  0.61757876    -0.39100
O858        O  0.04177432  0.10252378  0.60013910    -0.39200
C859        C  0.17431391  0.24434306  0.46282518    -0.11500
C860        C  0.17126560  0.23096095  0.50983095     0.05500
C861        C  0.18354771  0.24168778  0.55389446    -0.06800
C862        C  0.19837321  0.26479861  0.55029221    -0.07500
C863        C  0.20162543  0.27794810  0.50347709    -0.02100
C864        C  0.18924186  0.26764284  0.45946030     0.04700
N865        N  0.19034869  0.28154202  0.41185873     0.67300
H866        H  0.16534084  0.23654998  0.42843140     0.16200
H867        H  0.20696892  0.27290592  0.58483018     0.15900
N868        N  0.18029443  0.23002090  0.60338498     0.75000
O869        O  0.20787681  0.27630805  0.37986389    -0.38500
O870        O  0.17591499  0.30122376  0.40467195    -0.38400
O871        O  0.19881419  0.21786852  0.62375842    -0.39100
O872        O  0.16136772  0.23679406  0.63078065    -0.39200
C873        C  0.14673790  0.11677896  0.27991914    -0.11500
C874        C  0.13093948  0.13305497  0.31037906     0.05500
C875        C  0.11030267  0.14648384  0.28670093    -0.06800
C876        C  0.10562699  0.14301837  0.23427893    -0.07500
C877        C  0.12127495  0.12661211  0.20382631    -0.02100
C878        C  0.14228040  0.11361397  0.22722679     0.04700
N879        N  0.15934803  0.09707706  0.19844155     0.67300
H880        H  0.16273608  0.10640341  0.29694794     0.16200
H881        H  0.08964163  0.15349551  0.21743137     0.15900
N882        N  0.09335348  0.16324417  0.31522277     0.75000
O883        O  0.18003993  0.10664060  0.18122111    -0.38500
O884        O  0.15650470  0.07230821  0.19976651    -0.38400
O885        O  0.09684087  0.18793734  0.31453179    -0.39100
O886        O  0.07202446  0.15421561  0.33022128    -0.39200
C887        C  0.10604209  0.11618175  0.72320791    -0.11500
C888        C  0.12587612  0.13247134  0.70425403     0.05500
C889        C  0.13857725  0.14963635  0.73883530    -0.06800
C890        C  0.13212267  0.14938998  0.79099127    -0.07500
C891        C  0.11281291  0.13257803  0.81015343    -0.02100
C892        C  0.09927971  0.11628511  0.77528055     0.04700
N893        N  0.07805257  0.10038346  0.79147364     0.67300
H894        H  0.09545241  0.10333767  0.69752548     0.16200
H895        H  0.14263574  0.16231663  0.81664696     0.15900
N896        N  0.15774122  0.16788243  0.72184747     0.75000
O897        O  0.05572733  0.11014008  0.79142961    -0.38500
O898        O  0.08072722  0.07565343  0.79472935    -0.38400
O899        O  0.15150763  0.19153555  0.71302710    -0.39100
O900        O  0.18120086  0.16193735  0.72595396    -0.39200
C901        C  0.29950693  0.74234367  0.54014323    -0.11500
C902        C  0.29321095  0.73074132  0.49270448     0.05500
C903        C  0.30360986  0.74192601  0.44757065    -0.06800
C904        C  0.31995639  0.76418757  0.45074622    -0.07500
C905        C  0.32616849  0.77577814  0.49843255    -0.02100
C906        C  0.31555981  0.76453013  0.54342517     0.04700
N907        N  0.32135349  0.77498012  0.59321598     0.67300
H908        H  0.29225649  0.73377824  0.57531019     0.16200
H909        H  0.32735528  0.77273903  0.41572638     0.15900
N910        N  0.29876701  0.73026516  0.39847024     0.75000
O911        O  0.30517334  0.78962699  0.61560953    -0.38500
O912        O  0.33940356  0.76492523  0.61887696    -0.38400
O913        O  0.28236516  0.74060827  0.36911378    -0.39100
O914        O  0.31431762  0.71343289  0.38058782    -0.39200
C915        C  0.39181628  0.88583795  0.22178566    -0.11500
C916        C  0.37839515  0.86735167  0.19140537     0.05500
C917        C  0.36079424  0.85000430  0.21593127    -0.06800
C918        C  0.35706613  0.85152956  0.26912161    -0.07500
C919        C  0.37033469  0.87011044  0.29883961    -0.02100
C920        C  0.38800615  0.88722611  0.27503621     0.04700
N921        N  0.40325978  0.90513163  0.30467311     0.67300
H922        H  0.40564216  0.89903855  0.20441973     0.16200
H923        H  0.34356856  0.83823073  0.28727893     0.15900
N924        N  0.34609564  0.83099762  0.18768373     0.75000
O925        O  0.42480290  0.89752796  0.32115118    -0.38500
O926        O  0.39834533  0.92954536  0.30347036    -0.38400
O927        O  0.35241305  0.80692835  0.18921544    -0.39100
O928        O  0.32406453  0.83721421  0.17150392    -0.39200
C929        C  0.35292129  0.87369187  0.77919645    -0.11500
C930        C  0.37833050  0.87214396  0.79723944     0.05500
C931        C  0.39879775  0.87213219  0.76171849    -0.06800
C932        C  0.39355971  0.87377962  0.70923348    -0.07500
C933        C  0.36814456  0.87513853  0.69124808    -0.02100
C934        C  0.34768258  0.87504006  0.72673067     0.04700
N935        N  0.32154200  0.87724522  0.71044279     0.67300
H936        H  0.33699654  0.87375359  0.80586081     0.16200
H937        H  0.40944454  0.87373336  0.68247263     0.15900
N938        N  0.42499620  0.87142281  0.77813991     0.75000
O939        O  0.30785548  0.85669139  0.70715592    -0.38500
O940        O  0.31083651  0.89962550  0.71082180    -0.38400
O941        O  0.43739298  0.85004091  0.77498478    -0.39100
O942        O  0.43702581  0.89284632  0.78477769    -0.39200
C943        C  0.35917002  0.98989906  0.45031096    -0.11500
C944        C  0.37313064  0.97511708  0.48609206     0.05500
C945        C  0.39263760  0.98820135  0.51473913    -0.06800
C946        C  0.39730300  0.01529730  0.50749769    -0.07500
C947        C  0.38306562  0.03013111  0.47201387    -0.02100
C948        C  0.36398940  0.01683719  0.44269408     0.04700
N949        N  0.34905632  0.03016005  0.40480686     0.67300
H950        H  0.34450064  0.98046969  0.42720011     0.16200
H951        H  0.41192482  0.02480244  0.53061396     0.15900
N952        N  0.40793752  0.97454141  0.55165569     0.75000
O953        O  0.35810418  0.03283233  0.36014686    -0.38500
O954        O  0.32516975  0.03255767  0.41166098    -0.38400
O955        O  0.43110372  0.96937779  0.54128992    -0.39100
O956        O  0.40044444  0.97353986  0.59771663    -0.39200
C957        C  0.49693651  0.88830368  0.48514312    -0.11500
C958        C  0.01069019  0.87253810  0.52225826     0.05500
C959        C  0.99481123  0.87012081  0.56612761    -0.06800
C960        C  0.47061467  0.84233063  0.51385184    -0.07500
C961        C  0.45708463  0.86308811  0.49106972    -0.02100
C962        C  0.47060699  0.88598233  0.47556948     0.04700
N963        N  0.45781127  0.90723842  0.45023470     0.67300
H964        H  0.01180152  0.86894650  0.43967506     0.16200
H965        H  0.46051286  0.82471134  0.52582134     0.15900
N966        N  0.00453278  0.87482630  0.61664013     0.75000
O967        O  0.45032639  0.92688836  0.47622655    -0.38500
O968        O  0.46008032  0.90946899  0.40221900    -0.38400
O969        O  0.00174283  0.89736670  0.63685446    -0.39100
O970        O  0.01024825  0.85541315  0.64465900    -0.39200
C971        C  0.24508408  0.89733425  0.48663088    -0.11500
C972        C  0.26057556  0.87483284  0.48615158     0.05500
C973        C  0.24896528  0.84959515  0.48985554    -0.06800
C974        C  0.22224511  0.84729628  0.49549329    -0.07500
C975        C  0.20674260  0.86986359  0.49892888    -0.02100
C976        C  0.21844104  0.89515540  0.49353048     0.04700
N977        N  0.20367173  0.91897111  0.49564940     0.67300
H978        H  0.25379523  0.91672666  0.48429112     0.16200
H979        H  0.21377045  0.82785502  0.49908348     0.15900
N980        N  0.26416295  0.82605669  0.48871126     0.75000
O981        O  0.20232291  0.93176033  0.53731122    -0.38500
O982        O  0.19699436  0.92998676  0.45439261    -0.38400
O983        O  0.26875457  0.81403798  0.53004800    -0.39100
O984        O  0.26816712  0.81450505  0.44639837    -0.39200
C985        C  0.06059729  0.73563370  0.47249260    -0.11500
C986        C  0.04358213  0.72822059  0.51230033     0.05500
C987        C  0.04286728  0.74435579  0.55674439    -0.06800
C988        C  0.05875455  0.76687485  0.56042491    -0.07500
C989        C  0.07581736  0.77421335  0.52066224    -0.02100
C990        C  0.07650843  0.75809998  0.47621442     0.04700
N991        N  0.09263744  0.76453024  0.43360741     0.67300
H992        H  0.06180473  0.72377959  0.43784677     0.16200
H993        H  0.05752916  0.77883426  0.59493515     0.15900
N994        N  0.02658103  0.73802865  0.59916342     0.75000
O995        O  0.11408888  0.75314071  0.42884369    -0.38500
O996        O  0.08314983  0.77645045  0.39562345    -0.38400
O997        O  0.03587167  0.72606649  0.63728943    -0.39100
O998        O  0.50213312  0.74962132  0.58923530    -0.39200
C999        C  0.10741216  0.88944991  0.29746196    -0.11500
C1000       C  0.11728702  0.86818009  0.32579967     0.05500
C1001       C  0.13228581  0.84891719  0.29988271    -0.06800
C1002       C  0.13709661  0.85137334  0.24728631    -0.07500
C1003       C  0.12728589  0.87267486  0.21908755    -0.02100
C1004       C  0.11226124  0.89190486  0.24487565     0.04700
N1005       N  0.10225433  0.91448705  0.21886277     0.67300
H1006       H  0.09613620  0.90464193  0.31620780     0.16200
H1007       H  0.14839586  0.83623371  0.22842059     0.15900
N1008       N  0.14284552  0.82662475  0.32594764     0.75000
O1009       O  0.07905171  0.91455232  0.20475391    -0.38500
O1010       O  0.11453464  0.93600687  0.22052754    -0.38400
O1011       O  0.13138129  0.80465404  0.32343338    -0.39100
O1012       O  0.16592696  0.82737193  0.34078242    -0.39200
C1013       C  0.10149131  0.86299245  0.75061899    -0.11500
C1014       C  0.12107401  0.87334349  0.71930376     0.05500
C1015       C  0.14358333  0.88339307  0.74278955    -0.06800
C1016       C  0.14634695  0.88219329  0.79609159    -0.07500
C1017       C  0.12702907  0.87129397  0.82717807    -0.02100
C1018       C  0.10413040  0.86213415  0.80399924     0.04700
N1019       N  0.08285986  0.85303914  0.83398807     0.67300
H1020       H  0.08376809  0.85589999  0.73383432     0.16200
H1021       H  0.16396193  0.88946240  0.81305278     0.15900
N1022       N  0.16411870  0.89446922  0.71335725     0.75000
O1023       O  0.06644787  0.86950863  0.84997867    -0.38500
O1024       O  0.07749450  0.82870408  0.83453098    -0.38400
O1025       O  0.16665118  0.91926201  0.71128556    -0.39100
O1026       O  0.18235526  0.87981788  0.69870324    -0.39200
C1027       C  0.11764113  0.98706666  0.46418502    -0.11500
C1028       C  0.11884551  0.97443871  0.51216932     0.05500
C1029       C  0.12668041  0.98943056  0.55544173    -0.06800
C1030       C  0.13218164  0.01643543  0.55048924    -0.07500
C1031       C  0.13101076  0.02902998  0.50270285    -0.02100
C1032       C  0.12403627  0.01400515  0.45902982     0.04700
N1033       N  0.12257268  0.02590913  0.40948009     0.67300
H1034       H  0.11231290  0.97587730  0.43036903     0.16200
H1035       H  0.13733921  0.02768843  0.58435487     0.15900
N1036       N  0.12859133  0.97774781  0.60515989     0.75000
O1037       O  0.14148211  0.02402317  0.37927673    -0.38500
O1038       O  0.10095264  0.03268222  0.39201847    -0.38400
O1039       O  0.15043759  0.97174176  0.62260359    -0.39100
O1040       O  0.10959035  0.97878288  0.63526868    -0.39200
Zn1041     Zn  0.63182107  0.89169039  0.56832110     1.49700
Zn1042     Zn  0.58453144  0.85339463  0.57832687     1.49400
Zn1043     Zn  0.58986557  0.89163354  0.48201377     1.49100
Zn1044     Zn  0.62746031  0.84129807  0.49376846     1.49500
O1045       O  0.60841323  0.86942155  0.53009555    -1.83300
O1046       O  0.62982576  0.88437239  0.64396687    -0.74000
O1047       O  0.54782525  0.86214244  0.56136233    -0.73800
O1048       O  0.59871867  0.93085109  0.49009793    -0.73300
O1049       O  0.59476871  0.85972038  0.65243991    -0.74000
O1050       O  0.62671301  0.93040136  0.55455855    -0.73600
O1051       O  0.55180039  0.88388962  0.48761565    -0.74200
O1052       O  0.62508316  0.84695481  0.41750200    -0.73600
O1053       O  0.58301649  0.81475604  0.56728610    -0.74300
O1054       O  0.60029375  0.88239170  0.41070356    -0.73700
O1055       O  0.61134411  0.80471132  0.50675427    -0.74200
O1056       O  0.66609013  0.84487256  0.50744531    -0.74100
O1057       O  0.66740109  0.88421963  0.54569828    -0.73900
C1058       C  0.61417870  0.87148367  0.67196960     0.77900
C1059       C  0.53806236  0.87184125  0.52075780     0.78400
C1060       C  0.61399414  0.94281209  0.52067822     0.77400
C1061       C  0.61417345  0.86450474  0.39036917     0.77700
C1062       C  0.59290386  0.79808341  0.53656746     0.78900
C1063       C  0.67865630  0.86502848  0.52361214     0.77900
Zn1064     Zn  0.88231923  0.88972829  0.54091959     1.49700
Zn1065     Zn  0.87886110  0.84092362  0.46213423     1.49400
Zn1066     Zn  0.83693869  0.84942657  0.54969764     1.49100
Zn1067     Zn  0.83939989  0.89070272  0.45521731     1.49500
O1068       O  0.85933865  0.86771817  0.50110503    -1.83300
O1069       O  0.91807771  0.87864244  0.52946327    -0.74000
O1070       O  0.86067422  0.80441269  0.46887595    -0.73800
O1071       O  0.84461677  0.85729199  0.62409608    -0.73300
O1072       O  0.91746004  0.84198321  0.48178341    -0.74000
O1073       O  0.87664516  0.88593361  0.61602735    -0.73600
O1074       O  0.83694524  0.81055094  0.53901037    -0.74200
O1075       O  0.80079403  0.88456451  0.46720278    -0.73600
O1076       O  0.87825602  0.85051922  0.38714154    -0.74300
O1077       O  0.80063604  0.85773290  0.53486904    -0.73700
O1078       O  0.84856231  0.88202053  0.38082010    -0.74200
O1079       O  0.84916127  0.92994390  0.46559376    -0.74100
O1080       O  0.88054684  0.92801525  0.52271796    -0.73900
C1081       C  0.92965109  0.85973794  0.50719512     0.77900
C1082       C  0.84470304  0.79590581  0.50246193     0.78400
C1083       C  0.86163976  0.87226422  0.64381711     0.77400
C1084       C  0.78886815  0.87065338  0.50052441     0.77700
C1085       C  0.86512921  0.86659769  0.36035826     0.78900
C1086       C  0.86660310  0.94134086  0.49237037     0.77900
Zn1087     Zn  0.66612485  0.14403540  0.56350389     1.49700
Zn1088     Zn  0.62582633  0.15839338  0.47522477     1.49400
Zn1089     Zn  0.65869157  0.10408957  0.46861358     1.49100
Zn1090     Zn  0.61571466  0.11020591  0.55209039     1.49500
O1091       O  0.64159781  0.12939387  0.51436628    -1.83300
O1092       O  0.67130323  0.18296079  0.55176338    -0.74000
O1093       O  0.62800872  0.14978909  0.39984941    -0.73800
O1094       O  0.69720082  0.10961597  0.47355907    -0.73300
O1095       O  0.64586964  0.19359948  0.48665915    -0.74000
O1096       O  0.70144977  0.13058088  0.54824043    -0.73600
O1097       O  0.64791962  0.11109764  0.39541999    -0.74200
O1098       O  0.61739380  0.07117258  0.54065102    -0.73600
O1099       O  0.58651019  0.15917071  0.48755728    -0.74300
O1100       O  0.64912113  0.06559919  0.48496186    -0.73700
O1101       O  0.58091415  0.12212391  0.53213903    -0.74200
O1102       O  0.61938838  0.11547868  0.62704667    -0.74100
O1103       O  0.65587178  0.13735160  0.63800755    -0.73900
C1104       C  0.66365792  0.19963886  0.51868961     0.77900
C1105       C  0.63616559  0.13015543  0.37380377     0.78400
C1106       C  0.71128876  0.12001950  0.50833458     0.77400
C1107       C  0.63164282  0.05603932  0.51399618     0.77700
C1108       C  0.57183062  0.14172633  0.50786097     0.78900
C1109       C  0.63607960  0.12585294  0.65645150     0.77900
Zn1110     Zn  0.91423664  0.14668518  0.41954520     1.49700
Zn1111     Zn  0.90946895  0.10548742  0.51265030     1.49400
Zn1112     Zn  0.87163967  0.15610736  0.50613907     1.49100
Zn1113     Zn  0.86658380  0.10775551  0.42767930     1.49500
O1114       O  0.89053139  0.12901259  0.46698550    -1.83300
O1115       O  0.95049264  0.13447703  0.43033543    -0.74000
O1116       O  0.89849430  0.11247378  0.58647826    -0.73800
O1117       O  0.88933810  0.19254624  0.49935234    -0.73300
O1118       O  0.94792371  0.11279517  0.50427317    -0.74000
O1119       O  0.91739178  0.18545688  0.43636802    -0.73600
O1120       O  0.87247586  0.14703261  0.58093891    -0.74200
O1121       O  0.83061323  0.11694519  0.44612518    -0.73600
O1122       O  0.90068614  0.06643153  0.49899459    -0.74300
O1123       O  0.83290528  0.15435122  0.49124485    -0.73700
O1124       O  0.86976719  0.06879549  0.44092975    -0.74200
O1125       O  0.87077709  0.11452829  0.35309777    -0.74100
O1126       O  0.90365705  0.14217407  0.34522713    -0.73900
C1127       C  0.96122679  0.12393300  0.46906802     0.77900
C1128       C  0.88328581  0.12916417  0.60738132     0.78400
C1129       C  0.90767470  0.20055492  0.47044162     0.77400
C1130       C  0.81982903  0.13574484  0.47040005     0.77700
C1131       C  0.88375250  0.05518104  0.47078604     0.78900
C1132       C  0.88556613  0.12855269  0.32537395     0.77900
Zn1133     Zn  0.61572242  0.89132194  0.06931005     1.49700
Zn1134     Zn  0.61848840  0.84136768  0.99471379     1.49400
Zn1135     Zn  0.65900251  0.88992821  0.98369207     1.49100
Zn1136     Zn  0.66149057  0.85166341  0.07887228     1.49500
O1137       O  0.63853267  0.86866093  0.03089013    -1.83300
O1138       O  0.57948193  0.88326235  0.05197286    -0.74000
O1139       O  0.61866233  0.84958055  0.91936765    -0.73800
O1140       O  0.65217796  0.92981633  0.99331463    -0.73300
O1141       O  0.58010957  0.84422389  0.01247404    -0.74000
O1142       O  0.62042081  0.92892794  0.05031628    -0.73600
O1143       O  0.64770365  0.88156619  0.91126116    -0.74200
O1144       O  0.69789453  0.86372721  0.07094561    -0.73600
O1145       O  0.63581417  0.80464389  0.00185685    -0.74300
O1146       O  0.69689561  0.88008500  0.99195737    -0.73700
O1147       O  0.66513658  0.81354959  0.06118829    -0.74200
O1148       O  0.64957776  0.85586138  0.15177124    -0.74100
O1149       O  0.61947490  0.88677151  0.14525376    -0.73900
C1150       C  0.56780143  0.86403408  0.03092246     0.77900
C1151       C  0.63111015  0.86588110  0.89179294     0.78400
C1152       C  0.63489411  0.94162730  0.01976842     0.77400
C1153       C  0.70936827  0.87060432  0.02994001     0.77700
C1154       C  0.65517184  0.79765099  0.02893489     0.78900
C1155       C  0.63298433  0.87115102  0.17219295     0.77900
Zn1156     Zn  0.91034715  0.85027759  0.95151373     1.49700
Zn1157     Zn  0.90668332  0.89021907  0.04597366     1.49400
Zn1158     Zn  0.86139451  0.88655972  0.96700662     1.49100
Zn1159     Zn  0.87071814  0.83783117  0.04109607     1.49500
O1160       O  0.88731422  0.86622149  0.00183692    -1.83300
O1161       O  0.94666439  0.86149553  0.96218377    -0.74000
O1162       O  0.89871773  0.92931291  0.02945877    -0.73800
O1163       O  0.86464038  0.88254609  0.89116363    -0.73300
O1164       O  0.94492021  0.88182046  0.03779990    -0.74000
O1165       O  0.89945870  0.85780965  0.87889192    -0.73600
O1166       O  0.86281151  0.92527488  0.98392472    -0.74200
O1167       O  0.83231616  0.83547971  0.02606844    -0.73600
O1168       O  0.89572710  0.88386717  0.11988441    -0.74300
O1169       O  0.82684943  0.87370709  0.98540538    -0.73700
O1170       O  0.87072880  0.84809815  0.11541719    -0.74200
O1171       O  0.89050730  0.80268988  0.03224880    -0.74100
O1172       O  0.91394547  0.81131477  0.96309812    -0.73900
C1173       C  0.95781814  0.87082691  0.00167759     0.77900
C1174       C  0.87935636  0.93958122  0.00680448     0.78400
C1175       C  0.88046111  0.87087413  0.86154965     0.77400
C1176       C  0.81783021  0.85324090  0.00694928     0.77700
C1177       C  0.88103664  0.86679903  0.14089640     0.78900
C1178       C  0.90716334  0.79560414  0.99867939     0.77900
Zn1179     Zn  0.58778674  0.10320293  0.96983184     1.49700
Zn1180     Zn  0.63292449  0.10647009  0.04953258     1.49400
Zn1181     Zn  0.62370592  0.15495342  0.97384492     1.49100
Zn1182     Zn  0.58466662  0.14331399  0.06489574     1.49500
O1183       O  0.60733093  0.12702324  0.01427881    -1.83300
O1184       O  0.59434986  0.06415343  0.98672480    -0.74000
O1185       O  0.66755313  0.11794649  0.02777965    -0.73800
O1186       O  0.62104597  0.14555166  0.89976194    -0.73300
O1187       O  0.63017323  0.06806557  0.03259423    -0.74000
O1188       O  0.59861439  0.10825706  0.89539425    -0.73600
O1189       O  0.66287126  0.15535636  0.98410716    -0.74200
O1190       O  0.58351067  0.18249922  0.05694507    -0.73600
O1191       O  0.63077553  0.11080274  0.12613905    -0.74300
O1192       O  0.60504834  0.19044418  0.98487463    -0.73700
O1193       O  0.59582622  0.13538711  0.13736688    -0.74200
O1194       O  0.54753663  0.13462318  0.05086684    -0.74100
O1195       O  0.55032703  0.11301134  0.97655527    -0.73900
C1196       C  0.61368479  0.05387780  0.00928336     0.77900
C1197       C  0.67707269  0.13734788  0.00344844     0.78400
C1198       C  0.61185040  0.12636179  0.87395583     0.77400
C1199       C  0.58988278  0.19795719  0.02077424     0.77700
C1200       C  0.61503861  0.12285484  0.15542708     0.78900
C1201       C  0.53706375  0.12513243  0.01061403     0.77900
Zn1202     Zn  0.83293192  0.14208080  0.91941188     1.49700
Zn1203     Zn  0.83805989  0.10381395  0.01615194     1.49400
Zn1204     Zn  0.88138755  0.10426920  0.93163668     1.49100
Zn1205     Zn  0.87449899  0.15513845  0.00443815     1.49500
O1206       O  0.85679205  0.12632480  0.96819679    -1.83300
O1207       O  0.79666545  0.13045973  0.93387079    -0.74000
O1208       O  0.84667488  0.06452005  0.00651853    -0.73800
O1209       O  0.87773752  0.10805813  0.85547458    -0.73300
O1210       O  0.80006294  0.11186578  0.01068318    -0.74000
O1211       O  0.84450969  0.13506284  0.84585017    -0.73600
O1212       O  0.87938801  0.06579890  0.95192308    -0.74200
O1213       O  0.91306742  0.15474889  0.98824570    -0.73600
O1214       O  0.84856689  0.11247179  0.08843670    -0.74300
O1215       O  0.91681514  0.11602766  0.94792151    -0.73700
O1216       O  0.87348259  0.14784050  0.08001783    -0.74200
O1217       O  0.85593023  0.19080826  0.99411151    -0.74100
O1218       O  0.82876175  0.18137609  0.93130407    -0.73900
C1219       C  0.78646371  0.12234237  0.97549499     0.77900
C1220       C  0.86472410  0.05287272  0.98190505     0.78400
C1221       C  0.86287730  0.12138059  0.82675829     0.77400
C1222       C  0.92684984  0.13626390  0.96893061     0.77700
C1223       C  0.86284927  0.13033123  0.10783732     0.78900
C1224       C  0.83762529  0.19766980  0.96417879     0.77900
Zn1225     Zn  0.75532831  0.39569202  0.53415003     1.49700
Zn1226     Zn  0.70977457  0.35640613  0.54980899     1.49400
Zn1227     Zn  0.71081107  0.39301781  0.45022273     1.49100
Zn1228     Zn  0.75068597  0.34412708  0.46248546     1.49500
O1229       O  0.73174006  0.37232260  0.49851032    -1.83300
O1230       O  0.75245377  0.39363646  0.61157731    -0.74000
O1231       O  0.67323736  0.36719963  0.53848918    -0.73800
O1232       O  0.71821164  0.43286014  0.45684429    -0.73300
O1233       O  0.72171993  0.36391824  0.62252996    -0.74000
O1234       O  0.75175297  0.43300707  0.50971757    -0.73600
O1235       O  0.67273569  0.38480914  0.46029111    -0.74200
O1236       O  0.74918147  0.35110412  0.38718195    -0.73600
O1237       O  0.70785511  0.31720888  0.54013490    -0.74300
O1238       O  0.72074935  0.38347435  0.37761814    -0.73700
O1239       O  0.73358655  0.30776858  0.47436262    -0.74200
O1240       O  0.78926248  0.34571187  0.47981973    -0.74100
O1241       O  0.79107579  0.38464209  0.52006473    -0.73900
C1242       C  0.73903765  0.37907732  0.64103050     0.77900
C1243       C  0.66102414  0.37540048  0.49925740     0.78400
C1244       C  0.73637966  0.44509144  0.47993335     0.77400
C1245       C  0.73673368  0.36698832  0.35881205     0.77700
C1246       C  0.71676205  0.30082855  0.50753337     0.78900
C1247       C  0.80202765  0.36448054  0.50081612     0.77900
Zn1248     Zn  0.50451765  0.39462791  0.54910754     1.49700
Zn1249     Zn  0.96262649  0.39338503  0.47289251     1.49400
Zn1250     Zn  0.49886187  0.34543236  0.47360675     1.49100
Zn1251     Zn  0.95946224  0.35184324  0.56593948     1.49500
O1252       O  0.98207008  0.36944765  0.51714141    -1.83300
O1253       O  0.49994759  0.43273628  0.53471067    -0.74000
O1254       O  0.97284444  0.38746228  0.39851343    -0.73800
O1255       O  0.53744970  0.34614022  0.49014656    -0.73300
O1256       O  0.97083283  0.43255533  0.48793151    -0.74000
O1257       O  0.54018327  0.38488383  0.53086363    -0.73600
O1258       O  0.99906739  0.35294966  0.40325099    -0.74200
O1259       O  0.95505795  0.31313658  0.54852758    -0.73600
O1260       O  0.92459905  0.38528734  0.48247362    -0.74300
O1261       O  0.98127396  0.30634233  0.48243273    -0.73700
O1262       O  0.92328486  0.36504800  0.55832022    -0.74200
O1263       O  0.97230607  0.35607275  0.63889685    -0.74100
O1264       O  0.50192015  0.38925675  0.62477603    -0.73900
C1265       C  0.98812023  0.44332859  0.51593853     0.77900
C1266       C  0.98810278  0.37098522  0.37729070     0.78400
C1267       C  0.55070152  0.36489791  0.50996775     0.77400
C1268       C  0.96348073  0.29832030  0.51262765     0.77700
C1269       C  0.91199836  0.37484090  0.51938779     0.78900
C1270       C  0.99083078  0.36950235  0.65778410     0.77900
Zn1271     Zn  0.53393582  0.64957248  0.45339387     1.49700
Zn1272     Zn  0.53248936  0.60908895  0.54626889     1.49400
Zn1273     Zn  0.99257203  0.65886916  0.54641709     1.49100
Zn1274     Zn  0.98782684  0.60867819  0.47188671     1.49500
O1275       O  0.51196315  0.63259079  0.50310020    -1.83300
O1276       O  0.56982007  0.63688019  0.45932852    -0.74000
O1277       O  0.52354047  0.61498886  0.62119017    -0.73800
O1278       O  0.51544679  0.69441097  0.54182553    -0.73300
O1279       O  0.57059621  0.61738824  0.53553423    -0.74000
O1280       O  0.53901129  0.68731157  0.47213191    -0.73600
O1281       O  0.99276177  0.64901787  0.62151718    -0.74200
O1282       O  0.95240424  0.61926778  0.48576863    -0.73600
O1283       O  0.52337430  0.57030898  0.53134830    -0.74300
O1284       O  0.95398186  0.65853429  0.52476902    -0.73700
O1285       O  0.99160833  0.57066412  0.48928270    -0.74200
O1286       O  0.99053052  0.61243023  0.39601457    -0.74100
O1287       O  0.52191680  0.64571454  0.38001352    -0.73900
C1288       C  0.58221535  0.62813994  0.49770916     0.77900
C1289       C  0.50748088  0.63042188  0.64295066     0.78400
C1290       C  0.53272537  0.70186366  0.51004703     0.77400
C1291       C  0.94132728  0.63972472  0.50324063     0.77700
C1292       C  0.50474034  0.55993492  0.50633442     0.78900
C1293       C  0.50364170  0.63211237  0.36092077     0.77900
Zn1294     Zn  0.73777324  0.60837489  0.51915583     1.49700
Zn1295     Zn  0.74440875  0.66054629  0.45016480     1.49400
Zn1296     Zn  0.78496302  0.64355223  0.53410330     1.49100
Zn1297     Zn  0.78165197  0.60889946  0.43544888     1.49500
O1298       O  0.76171608  0.63042942  0.48329873    -1.83300
O1299       O  0.70316716  0.62045342  0.50462398    -0.80400
O1300       O  0.76534231  0.69536147  0.46195648    -0.73800
O1301       O  0.77199933  0.63978792  0.60588806    -0.73300
O1302       O  0.70571853  0.66099820  0.47205672    -0.74000
O1303       O  0.73987445  0.61150179  0.59601362    -0.73600
O1304       O  0.79267473  0.68115781  0.52103104    -0.74200
O1305       O  0.81995353  0.61844600  0.44428845    -0.73600
O1306       O  0.74457978  0.65358826  0.37373571    -0.74300
O1307       O  0.81908988  0.62685241  0.52781028    -0.73700
O1308       O  0.76946912  0.61791916  0.36380898    -0.74200
O1309       O  0.77438474  0.56899626  0.44579830    -0.74100
O1310       O  0.74037904  0.57068278  0.49758569    -0.73900
C1311       C  0.69253889  0.64172200  0.49035056     0.77900
C1312       C  0.78466683  0.69927643  0.49154277     0.78400
C1313       C  0.75393139  0.62589640  0.62459942     0.77400
C1314       C  0.83158391  0.62422928  0.48613869     0.77700
C1315       C  0.75490394  0.63585135  0.34555542     0.78900
C1316       C  0.75596335  0.55760214  0.46973191     0.77900
Zn1317     Zn  0.53958305  0.35175875  0.05886819     1.49700
Zn1318     Zn  0.53591652  0.39112130  0.96289237     1.49400
Zn1319     Zn  0.99932449  0.33928001  0.97784495     1.49100
Zn1320     Zn  0.99280422  0.38921834  0.05335623     1.49500
O1321       O  0.51669979  0.36754085  0.00861901    -1.83300
O1322       O  0.57587382  0.36215499  0.04526000    -0.74000
O1323       O  0.52621130  0.38275237  0.88952193    -0.73800
O1324       O  0.51581766  0.30279001  0.98189134    -0.73300
O1325       O  0.57416783  0.38465970  0.97193185    -0.74000
O1326       O  0.54167810  0.31317292  0.04678032    -0.73600
O1327       O  0.00191436  0.34544543  0.90256935    -0.74200
O1328       O  0.95782873  0.37837924  0.03462105    -0.73600
O1329       O  0.52679529  0.43028365  0.97395202    -0.74300
O1330       O  0.96033137  0.34098618  0.98928627    -0.73700
O1331       O  0.99478169  0.42711877  0.03371841    -0.74200
O1332       O  0.99628203  0.38579906  0.12981785    -0.74100
O1333       O  0.52926407  0.35805352  0.13337724    -0.73900
C1334       C  0.58685570  0.37284990  0.00692915     0.77900
C1335       C  0.51283555  0.36470645  0.86796378     0.78400
C1336       C  0.53308147  0.29643543  0.01458260     0.77400
C1337       C  0.94728020  0.35955109  0.01016862     0.77700
C1338       C  0.50913255  0.44094379  0.00111694     0.78900
C1339       C  0.51031017  0.37084328  0.15204812     0.77900
Zn1340     Zn  0.74882309  0.34353422  0.96235553     1.49700
Zn1341     Zn  0.74436718  0.39202926  0.03972188     1.49400
Zn1342     Zn  0.79035361  0.35366844  0.04909941     1.49100
Zn1343     Zn  0.78779042  0.39407118  0.95537311     1.49500
O1344       O  0.76785312  0.37083789  0.00041509    -1.83300
O1345       O  0.70996943  0.34500040  0.98107584    -0.74000
O1346       O  0.74657596  0.38481355  0.11442591    -0.73800
O1347       O  0.79585709  0.31581393  0.03022942    -0.73300
O1348       O  0.70890120  0.38454425  0.01874158    -0.74000
O1349       O  0.76738472  0.30699804  0.96930583    -0.73600
O1350       O  0.77858548  0.35636057  0.12254767    -0.74200
O1351       O  0.82640513  0.38607978  0.96616209    -0.73600
O1352       O  0.74881507  0.43031098  0.02902871    -0.74300
O1353       O  0.82532748  0.36807815  0.04386943    -0.73700
O1354       O  0.77928474  0.43336711  0.97000678    -0.74200
O1355       O  0.77656064  0.38733844  0.88120610    -0.74100
O1356       O  0.74923662  0.35366893  0.88724876    -0.73900
C1357       C  0.69747573  0.36499519  0.99844089     0.77900
C1358       C  0.76063440  0.37015781  0.14216697     0.78400
C1359       C  0.78644064  0.29991355  0.99737379     0.77400
C1360       C  0.83787564  0.37669596  0.00562276     0.77700
C1361       C  0.76269198  0.44423595  0.99967890     0.78900
C1362       C  0.76049564  0.37133895  0.86061558     0.77900
Zn1363     Zn  0.75616023  0.61035931  0.94644495     1.49700
Zn1364     Zn  0.74843501  0.65742421  0.02634444     1.49400
Zn1365     Zn  0.70822817  0.64637753  0.93724704     1.49100
Zn1366     Zn  0.71255102  0.60530930  0.03103830     1.49500
O1367       O  0.73122728  0.62979088  0.98611915    -1.83300
O1368       O  0.79062239  0.62104957  0.96686045    -0.74000
O1369       O  0.73023925  0.69294272  0.01804465    -0.73800
O1370       O  0.71939668  0.64215999  0.86320491    -0.73300
O1371       O  0.78737265  0.65756727  0.01430256    -0.74000
O1372       O  0.75410672  0.61713188  0.87153875    -0.73600
O1373       O  0.70297463  0.68449936  0.95470934    -0.74200
O1374       O  0.67404933  0.61031769  0.01925377    -0.73600
O1375       O  0.74491600  0.64894338  0.10048794    -0.74300
O1376       O  0.67288359  0.63276653  0.94600380    -0.73700
O1377       O  0.72043970  0.61322256  0.10659584    -0.74200
O1378       O  0.72384343  0.56711494  0.01660586    -0.74100
O1379       O  0.75431846  0.57159892  0.95775530    -0.73900
C1380       C  0.80085091  0.63985076  0.99183248     0.77900
C1381       C  0.71171924  0.70002696  0.98903481     0.78400
C1382       C  0.73850144  0.62994595  0.84378748     0.77400
C1383       C  0.66150891  0.62144357  0.98311059     0.77700
C1384       C  0.73383941  0.63145482  0.12758024     0.78900
C1385       C  0.74101922  0.55707234  0.98720399     0.77900
Zn1386     Zn  0.95732132  0.64034607  0.05652244     1.49700
Zn1387     Zn  0.50453042  0.60535342  0.03789260     1.49400
Zn1388     Zn  0.95992674  0.60261916  0.95861458     1.49100
Zn1389     Zn  0.49918724  0.65382380  0.96033351     1.49500
O1390       O  0.98009015  0.62466427  0.00616628    -1.83300
O1391       O  0.96875410  0.63476817  0.12959375    -0.74000
O1392       O  0.50060033  0.56683942  0.02390762    -0.73800
O1393       O  0.92229929  0.61145062  0.96776060    -0.73300
O1394       O  0.50313451  0.61238679  0.11376298    -0.74000
O1395       O  0.92114010  0.62884153  0.04614421    -0.73600
O1396       O  0.96709182  0.56284344  0.96943584    -0.74200
O1397       O  0.99685522  0.64517911  0.89460588    -0.73600
O1398       O  0.53938699  0.61443145  0.01701559    -0.74300
O1399       O  0.96931652  0.61171910  0.88501647    -0.73700
O1400       O  0.53812041  0.65268576  0.97579845    -0.74200
O1401       O  0.98164296  0.68923710  0.98238511    -0.74100
O1402       O  0.95400376  0.67883094  0.04382843    -0.73900
C1403       C  0.98734055  0.62155523  0.14818587     0.77900
C1404       C  0.98453559  0.55174485  0.99634498     0.78400
C1405       C  0.90979673  0.62142735  0.00527366     0.77400
C1406       C  0.98458026  0.62891202  0.86624656     0.77700
C1407       C  0.55080091  0.63353003  0.99536756     0.78900
C1408       C  0.96321988  0.69560791  0.01267111     0.77900
C1409       C  0.84256238  0.63094876  0.95100159    -0.11500
C1410       C  0.82906244  0.63957214  0.99464187     0.05500
C1411       C  0.84221056  0.64253969  0.04143621    -0.06800
C1412       C  0.86830261  0.63594577  0.04424049    -0.07500
C1413       C  0.88176430  0.62641051  0.00088069    -0.02100
C1414       C  0.86857374  0.62438392  0.95356310     0.04700
N1415       N  0.88109017  0.61575481  0.90756020     0.67300
H1416       H  0.83260280  0.62849397  0.91480520     0.16200
H1417       H  0.87792144  0.63806639  0.08082646     0.15900
N1418       N  0.82904072  0.65050052  0.08714700     0.75000
O1419       O  0.87924377  0.59185684  0.89388799    -0.38500
O1420       O  0.88867184  0.63271079  0.87551748    -0.38400
O1421       O  0.82077073  0.63315162  0.11769537    -0.39100
O1422       O  0.83018360  0.67430767  0.10168184    -0.39200
C1423       C  0.62111807  0.64461382  0.95929149    -0.11500
C1424       C  0.63311865  0.62360331  0.98544104     0.05500
C1425       C  0.61794657  0.60680345  0.01587433    -0.06800
C1426       C  0.59151117  0.61117427  0.01965268    -0.07500
C1427       C  0.57933617  0.63198741  0.99310016    -0.02100
C1428       C  0.59457441  0.64894817  0.96290350     0.04700
N1429       N  0.58358157  0.67052867  0.93537653     0.67300
H1430       H  0.63242605  0.65816613  0.93651187     0.16200
H1431       H  0.58045566  0.59766510  0.04299814     0.15900
N1432       N  0.62877959  0.58454788  0.04161531     0.75000
O1433       O  0.58209692  0.69294875  0.95664333    -0.38500
O1434       O  0.58038391  0.66857732  0.88747524    -0.38400
O1435       O  0.63149421  0.58521094  0.08975620    -0.39100
O1436       O  0.63041342  0.56270323  0.01821942    -0.39200
C1437       C  0.76895974  0.48845103  0.95880978    -0.11500
C1438       C  0.75814092  0.47337518  0.99848938     0.05500
C1439       C  0.74140567  0.48618895  0.03383924    -0.06800
C1440       C  0.73580233  0.51309609  0.02858012    -0.07500
C1441       C  0.74650667  0.52814636  0.98885594    -0.02100
C1442       C  0.76333758  0.51544001  0.95360717     0.04700
N1443       N  0.77460370  0.52936330  0.91154924     0.67300
H1444       H  0.78148326  0.47920247  0.93088103     0.16200
H1445       H  0.72317225  0.52226506  0.05642787     0.15900
N1446       N  0.72990046  0.47240728  0.07581844     0.75000
O1447       O  0.79717943  0.53828841  0.91565997    -0.38500
O1448       O  0.76433886  0.52786664  0.86774188    -0.38400
O1449       O  0.74007750  0.47394739  0.11969417    -0.39100
O1450       O  0.70696497  0.46450653  0.07195295    -0.39200
C1451       C  0.90550779  0.36237055  0.05295949    -0.11500
C1452       C  0.91913765  0.36042974  0.00685581     0.05500
C1453       C  0.90634572  0.36515277  0.96010863    -0.06800
C1454       C  0.88003344  0.37144946  0.96030091    -0.07500
C1455       C  0.86624591  0.37336894  0.00670476    -0.02100
C1456       C  0.87943575  0.36874108  0.05347748     0.04700
N1457       N  0.86697359  0.37120820  0.10225081     0.67300
H1458       H  0.91541263  0.35972973  0.08910055     0.16200
H1459       H  0.87039690  0.37466947  0.92410807     0.15900
N1460       N  0.92008438  0.36516437  0.91254210     0.75000
O1461       O  0.85936382  0.35065216  0.12501284    -0.38500
O1462       O  0.86922886  0.39249497  0.12732619    -0.38400
O1463       O  0.91738898  0.34605872  0.88168003    -0.39100
O1464       O  0.93054885  0.38622969  0.89721567    -0.39200
C1465       C  0.62963744  0.39223508  0.98822656    -0.11500
C1466       C  0.61498017  0.37027657  0.00218690     0.05500
C1467       C  0.62740650  0.34596408  0.01208900    -0.06800
C1468       C  0.65426085  0.34411469  0.00840868    -0.07500
C1469       C  0.66906902  0.36635021  0.99600864    -0.02100
C1470       C  0.65644980  0.39064343  0.98593417     0.04700
N1471       N  0.67057515  0.41410391  0.97412174     0.67300
H1472       H  0.62030333  0.41095472  0.98067948     0.16200
H1473       H  0.66358426  0.32548808  0.01675193     0.15900
N1474       N  0.61293150  0.32293938  0.02553415     0.75000
O1475       O  0.67371875  0.42054690  0.92778648    -0.38500
O1476       O  0.67408670  0.43119433  0.00887496    -0.38400
O1477       O  0.59856327  0.31196089  0.99272257    -0.39100
O1478       O  0.61291292  0.31483948  0.07130095    -0.39200
C1479       C  0.51541507  0.51554407  0.98188694    -0.11500
C1480       C  0.98959004  0.52306239  0.99259213     0.05500
C1481       C  0.97021803  0.50380219  0.99751176    -0.06800
C1482       C  0.97701359  0.47701504  0.00027421    -0.07500
C1483       C  0.50340916  0.46972383  0.99746382    -0.02100
C1484       C  0.52193688  0.48864707  0.98273343     0.04700
N1485       N  0.54770472  0.48116196  0.97045664     0.67300
H1486       H  0.52999166  0.52985812  0.97169245     0.16200
H1487       H  0.96196779  0.46248833  0.00534000     0.15900
N1488       N  0.94382978  0.51108189  0.00315396     0.75000
O1489       O  0.55395299  0.47780833  0.92403971    -0.38500
O1490       O  0.56508193  0.48397154  0.00382181    -0.38400
O1491       O  0.92868605  0.50789844  0.96580436    -0.39100
O1492       O  0.93470550  0.51449144  0.04762025    -0.39200
C1493       C  0.73439306  0.61437476  0.27059933    -0.11500
C1494       C  0.74897816  0.63536489  0.29041928     0.05500
C1495       C  0.75731094  0.65553644  0.25749521    -0.06800
C1496       C  0.75176456  0.65398519  0.20503867    -0.07500
C1497       C  0.73752407  0.63269284  0.18432500    -0.02100
C1498       C  0.72829188  0.61302891  0.21819917     0.04700
N1499       N  0.71266780  0.59162488  0.20045920     0.67300
H1500       H  0.72749677  0.59906438  0.29605911     0.16200
H1501       H  0.75897946  0.66950878  0.18046589     0.15900
N1502       N  0.77229813  0.67719312  0.27636560     0.75000
O1503       O  0.72285968  0.56943400  0.19162524    -0.38500
O1504       O  0.68853975  0.59323071  0.20458526    -0.38400
O1505       O  0.79648194  0.67630514  0.27281807    -0.39100
O1506       O  0.76146762  0.69896929  0.28605727    -0.39200
C1507       C  0.77049056  0.63104271  0.71315446    -0.11500
C1508       C  0.74941982  0.62671855  0.68056855     0.05500
C1509       C  0.72459905  0.62407677  0.70212785    -0.06800
C1510       C  0.72132065  0.62600074  0.75539680    -0.07500
C1511       C  0.74248201  0.62991046  0.78783623    -0.02100
C1512       C  0.76727848  0.63236339  0.76636802     0.04700
N1513       N  0.78932180  0.63701762  0.79791287     0.67300
H1514       H  0.78960633  0.63316675  0.69733868     0.16200
H1515       H  0.70225917  0.62393222  0.77149340     0.15900
N1516       N  0.70242901  0.62018399  0.67059033     0.75000
O1517       O  0.80339804  0.61782084  0.81058455    -0.38500
O1518       O  0.79765963  0.66030252  0.80334157    -0.38400
O1519       O  0.69225943  0.59755338  0.66793165    -0.39100
O1520       O  0.69008129  0.64001005  0.65482705    -0.39200
C1521       C  0.90267838  0.63074199  0.45062801    -0.11500
C1522       C  0.91309516  0.64040046  0.49698310     0.05500
C1523       C  0.89648078  0.64596965  0.53810219    -0.06800
C1524       C  0.87018684  0.64051149  0.53335789    -0.07500
C1525       C  0.85975306  0.62964580  0.48778067    -0.02100
C1526       C  0.87629962  0.62565153  0.44545075     0.04700
N1527       N  0.86694007  0.61603798  0.39725657     0.67300
H1528       H  0.91520288  0.62647280  0.41868508     0.16200
H1529       H  0.85802756  0.64448870  0.56611057     0.15900
N1530       N  0.90613515  0.65534825  0.58618755     0.75000
O1531       O  0.86064551  0.63232967  0.36293659    -0.38500
O1532       O  0.87025925  0.59207799  0.38527572    -0.38400
O1533       O  0.90275071  0.67922438  0.59871282    -0.39100
O1534       O  0.91280856  0.63891926  0.61995910    -0.39200
C1535       C  0.65313384  0.62625061  0.53431821    -0.11500
C1536       C  0.66418500  0.64249036  0.49629715     0.05500
C1537       C  0.64789082  0.65528081  0.46135947    -0.06800
C1538       C  0.62140889  0.65008417  0.46245200    -0.07500
C1539       C  0.61051529  0.63249225  0.49850250    -0.02100
C1540       C  0.62672185  0.62116081  0.53574351     0.04700
N1541       N  0.61702924  0.60365133  0.57413792     0.67300
H1542       H  0.66523657  0.61653414  0.56220860     0.16200
H1543       H  0.60938252  0.65991445  0.43462294     0.15900
N1544       N  0.65790168  0.67268285  0.42319573     0.75000
O1545       O  0.61676714  0.57908121  0.56547641    -0.38500
O1546       O  0.61403734  0.61199337  0.61950811    -0.38400
O1547       O  0.65991526  0.66472535  0.37737081    -0.39100
O1548       O  0.65947699  0.69710001  0.43289438    -0.39200
C1549       C  0.97100171  0.62375781  0.23757246    -0.11500
C1550       C  0.99206962  0.62235879  0.20405995     0.05500
C1551       C  0.51749681  0.62552849  0.21928410    -0.06800
C1552       C  0.52071968  0.62774648  0.27251568    -0.07500
C1553       C  0.49959426  0.63196080  0.30492229    -0.02100
C1554       C  0.97461120  0.62502410  0.29073327     0.04700
N1555       N  0.95252630  0.62651291  0.32332834     0.67300
H1556       H  0.95162675  0.62367716  0.22247808     0.16200
H1557       H  0.53973898  0.62547424  0.28869851     0.15900
N1558       N  0.53967202  0.62084793  0.18807796     0.75000
O1559       O  0.94292869  0.64880520  0.33378225    -0.38500
O1560       O  0.93965892  0.60585010  0.33210052    -0.38400
O1561       O  0.55412348  0.63996164  0.17642019    -0.39100
O1562       O  0.54773433  0.59750150  0.18218160    -0.39200
C1563       C  0.97497119  0.63107556  0.72158665    -0.11500
C1564       C  0.50216966  0.62787131  0.69831267     0.05500
C1565       C  0.52188834  0.62384719  0.73449695    -0.06800
C1566       C  0.51593554  0.62338838  0.78690322    -0.07500
C1567       C  0.98931392  0.62954315  0.81039678    -0.02100
C1568       C  0.96920714  0.62951821  0.77412950     0.04700
N1569       N  0.94289802  0.62883587  0.78996888     0.67300
H1570       H  0.95940485  0.63143399  0.69412525     0.16200
H1571       H  0.53125988  0.62106172  0.81451460     0.15900
N1572       N  0.54813443  0.62139983  0.71894724     0.75000
O1573       O  0.93076289  0.65025164  0.79553839    -0.38500
O1574       O  0.93057990  0.60736401  0.78728961    -0.38400
O1575       O  0.56275746  0.64128477  0.72150924    -0.39100
O1576       O  0.55778131  0.59868399  0.71334375    -0.39200
C1577       C  0.98492805  0.38704413  0.23433731    -0.11500
C1578       C  0.50492611  0.37064232  0.20824930     0.05500
C1579       C  0.52344358  0.36328221  0.24521177    -0.06800
C1580       C  0.51687452  0.36300310  0.29745765    -0.07500
C1581       C  0.99423280  0.37299711  0.32165908    -0.02100
C1582       C  0.97839701  0.38652973  0.28654068     0.04700
N1583       N  0.95512685  0.39909407  0.30263424     0.67300
H1584       H  0.97201891  0.39695348  0.20821742     0.16200
H1585       H  0.53144513  0.35768537  0.32517447     0.15900
N1586       N  0.54922122  0.35683949  0.23085189     0.75000
O1587       O  0.95510925  0.42362861  0.31170807    -0.38500
O1588       O  0.93400851  0.38709809  0.29726591    -0.38400
O1589       O  0.56654431  0.37421187  0.23490596    -0.39100
O1590       O  0.55554671  0.33289059  0.22569980    -0.39200
C1591       C  0.98961089  0.34528695  0.74047679    -0.11500
C1592       C  0.99615346  0.36826359  0.71346788     0.05500
C1593       C  0.50352563  0.39399705  0.73615045    -0.06800
C1594       C  0.51043667  0.39075813  0.78759707    -0.07500
C1595       C  0.50792087  0.36616111  0.81196495    -0.02100
C1596       C  0.99521784  0.34281311  0.79278303     0.04700
N1597       N  0.98847859  0.31869246  0.81785900     0.67300
H1598       H  0.98043555  0.32895114  0.72079022     0.16200
H1599       H  0.51702276  0.40785892  0.80889951     0.15900
N1600       N  0.50514368  0.41979862  0.71420581     0.75000
O1601       O  0.96577846  0.31543223  0.83380177    -0.38500
O1602       O  0.00317473  0.29895462  0.81379730    -0.38400
O1603       O  0.48668471  0.43569528  0.72020407    -0.39100
O1604       O  0.52666020  0.42846941  0.69942627    -0.39200
C1605       C  0.98927508  0.51612176  0.47705333    -0.11500
C1606       C  0.50011668  0.53082258  0.50699976     0.05500
C1607       C  0.51267265  0.51371828  0.54150530    -0.06800
C1608       C  0.50719816  0.48661578  0.54067787    -0.07500
C1609       C  0.99206909  0.47259743  0.51642556    -0.02100
C1610       C  0.98399734  0.48893413  0.47573418     0.04700
N1611       N  0.97144994  0.47819617  0.43150756     0.67300
H1612       H  0.98287177  0.52803585  0.44511918     0.16200
H1613       H  0.51736784  0.47411227  0.56742594     0.15900
N1614       N  0.53060843  0.52342636  0.57862524     0.75000
O1615       O  0.94727351  0.47933374  0.42826466    -0.38500
O1616       O  0.98452034  0.47286380  0.39193240    -0.38400
O1617       O  0.52318082  0.52755421  0.62411917    -0.39100
O1618       O  0.55437587  0.52225189  0.56911401    -0.39200
C1619       C  0.84122262  0.36744653  0.55346089    -0.11500
C1620       C  0.83024343  0.36357674  0.50482683     0.05500
C1621       C  0.84619757  0.36351045  0.46114796    -0.06800
C1622       C  0.87267231  0.36802543  0.46663150    -0.07500
C1623       C  0.88369810  0.37219188  0.51534352    -0.02100
C1624       C  0.86768799  0.37141128  0.55917295     0.04700
N1625       N  0.87774050  0.37574124  0.60958757     0.67300
H1626       H  0.82904478  0.36801590  0.58717953     0.16200
H1627       H  0.88467708  0.36795718  0.43266547     0.15900
N1628       N  0.83568301  0.36018313  0.41086893     0.75000
O1629       O  0.87867322  0.39895234  0.62748342    -0.38500
O1630       O  0.88044148  0.35638264  0.63950026    -0.38400
O1631       O  0.83170267  0.38022832  0.38333573    -0.39100
O1632       O  0.83543672  0.33749083  0.39052611    -0.39200
C1633       C  0.62009604  0.37476055  0.54759337    -0.11500
C1634       C  0.63262387  0.37308466  0.49992918     0.05500
C1635       C  0.61799820  0.36694466  0.45563502    -0.06800
C1636       C  0.59141001  0.36244313  0.46003941    -0.07500
C1637       C  0.57900720  0.36467209  0.50775231    -0.02100
C1638       C  0.59359506  0.37096883  0.55170288     0.04700
N1639       N  0.58175874  0.37346900  0.60105620     0.67300
H1640       H  0.63090600  0.37926272  0.58200482     0.16200
H1641       H  0.58029224  0.35830627  0.42585297     0.15900
N1642       N  0.62974301  0.36497916  0.40611000     0.75000
O1643       O  0.58106161  0.35371785  0.63045063    -0.38500
O1644       O  0.57732795  0.39619913  0.61918382    -0.38400
O1645       O  0.63446199  0.34245814  0.38730704    -0.39100
O1646       O  0.63000990  0.38493817  0.37720405    -0.39200
C1647       C  0.76643102  0.35856485  0.28596519    -0.11500
C1648       C  0.74209131  0.36692784  0.30308791     0.05500
C1649       C  0.72413298  0.37621783  0.26693214    -0.06800
C1650       C  0.73075489  0.37712020  0.21502694    -0.07500
C1651       C  0.75512657  0.36894450  0.19782305    -0.02100
C1652       C  0.77314594  0.35965637  0.23398751     0.04700
N1653       N  0.79869535  0.35246084  0.21923086     0.67300
H1654       H  0.78068262  0.35190171  0.31322012     0.16200
H1655       H  0.71648688  0.38397386  0.18799847     0.15900
N1656       N  0.69879419  0.38405141  0.28181551     0.75000
O1657       O  0.81607817  0.36988978  0.21880916    -0.38500
O1658       O  0.80490539  0.32835936  0.21753149    -0.38400
O1659       O  0.69307092  0.40829155  0.28268279    -0.39100
O1660       O  0.68106207  0.36700945  0.28265211    -0.39200
C1661       C  0.72772704  0.36416217  0.72961663    -0.11500
C1662       C  0.74417085  0.37876438  0.69755625     0.05500
C1663       C  0.76574362  0.39142142  0.72011247    -0.06800
C1664       C  0.77061303  0.38876223  0.77289585    -0.07500
C1665       C  0.75443489  0.37368815  0.80468255    -0.02100
C1666       C  0.73247773  0.36167244  0.78236615     0.04700
N1667       N  0.71421774  0.34748930  0.81271964     0.67300
H1668       H  0.71090785  0.35454771  0.71382536     0.16200
H1669       H  0.78740038  0.39836060  0.78885166     0.15900
N1670       N  0.78331377  0.40667645  0.69012871     0.75000
O1671       O  0.69560224  0.35976777  0.83278048    -0.38500
O1672       O  0.71359313  0.32257042  0.81031609    -0.38400
O1673       O  0.78181596  0.43157731  0.69097031    -0.39100
O1674       O  0.80315222  0.39579198  0.67181743    -0.39200
C1675       C  0.76635579  0.48315763  0.47154548    -0.11500
C1676       C  0.74084802  0.47377003  0.47145380     0.05500
C1677       C  0.72066814  0.49208187  0.46545591    -0.06800
C1678       C  0.72618647  0.51923256  0.46342828    -0.07500
C1679       C  0.75165930  0.52865526  0.46560360    -0.02100
C1680       C  0.77189163  0.51024062  0.46800059     0.04700
N1681       N  0.79807665  0.51870126  0.47016516     0.67300
H1682       H  0.78214637  0.46940098  0.47519065     0.16200
H1683       H  0.71040845  0.53307747  0.46090977     0.15900
N1684       N  0.69443984  0.48367368  0.46404466     0.75000
O1685       O  0.80851256  0.52257339  0.51327349    -0.38500
O1686       O  0.81198446  0.51670950  0.43059721    -0.38400
O1687       O  0.68081651  0.48560323  0.50401675    -0.39100
O1688       O  0.68367148  0.47996864  0.42120283    -0.39200
C1689       C  0.79168854  0.25693623  0.94925563    -0.11500
C1690       C  0.79912654  0.27338879  0.99025274     0.05500
C1691       C  0.81996819  0.26489063  0.02143910    -0.06800
C1692       C  0.83261408  0.24089741  0.01098449    -0.07500
C1693       C  0.82511944  0.22436514  0.97013577    -0.02100
C1694       C  0.80420615  0.23277598  0.93913386     0.04700
N1695       N  0.79505195  0.21702191  0.89728955     0.67300
H1696       H  0.77606639  0.26284513  0.92447387     0.16200
H1697       H  0.84815626  0.23499190  0.03597798     0.15900
N1698       N  0.82851925  0.28006309  0.06464735     0.75000
O1699       O  0.77629205  0.20159991  0.90429723    -0.38500
O1700       O  0.80169293  0.22277358  0.85207151    -0.38400
O1701       O  0.82046913  0.27428600  0.10894316    -0.39100
O1702       O  0.84786712  0.29495380  0.06007267    -0.39200
C1703       C  0.99715235  0.11987798  0.94935695    -0.11500
C1704       C  0.50907654  0.12900509  0.00156227     0.05500
C1705       C  0.49418004  0.14818804  0.02807401    -0.06800
C1706       C  0.96566682  0.14485985  0.02162858    -0.07500
C1707       C  0.95512341  0.13659818  0.97470753    -0.02100
C1708       C  0.97128835  0.12446263  0.93801213     0.04700
N1709       N  0.96189575  0.11708624  0.88844205     0.67300
H1710       H  0.50838334  0.10011667  0.94027782     0.16200
H1711       H  0.95346437  0.15372817  0.05055241     0.15900
N1712       N  0.50520243  0.16478788  0.06679003     0.75000
O1713       O  0.96214275  0.13394860  0.85287082    -0.38500
O1714       O  0.95950935  0.09289526  0.87732024    -0.38400
O1715       O  0.51259612  0.18777484  0.05517448    -0.39100
O1716       O  0.50247383  0.15877421  0.11345748    -0.39200
C1717       C  0.72031980  0.12861034  0.03828109    -0.11500
C1718       C  0.70531036  0.13756529  0.99718923     0.05500
C1719       C  0.71720305  0.14211847  0.94940820    -0.06800
C1720       C  0.74346688  0.13671378  0.94308176    -0.07500
C1721       C  0.75843057  0.12681149  0.98377744    -0.02100
C1722       C  0.74655922  0.12343512  0.03227792     0.04700
N1723       N  0.76076122  0.11525176  0.07634404     0.67300
H1724       H  0.71149015  0.12513376  0.07525955     0.16200
H1725       H  0.75199695  0.13989770  0.90576343     0.15900
N1726       N  0.70258916  0.15008770  0.90575935     0.75000
O1727       O  0.76986468  0.13258113  0.10624199    -0.38500
O1728       O  0.75899922  0.09164416  0.09143184    -0.38400
O1729       O  0.70362515  0.17382387  0.89117234    -0.39100
O1730       O  0.69410815  0.13263429  0.87541266    -0.39200
C1731       C  0.55523108  0.26063629  0.06190120    -0.11500
C1732       C  0.54526865  0.26981653  0.01507127     0.05500
C1733       C  0.55119288  0.25565243  0.96967517    -0.06800
C1734       C  0.56712111  0.23318695  0.97184715    -0.07500
C1735       C  0.57705397  0.22415241  0.01881581    -0.02100
C1736       C  0.57079329  0.23811923  0.06417452     0.04700
N1737       N  0.58077786  0.23022429  0.11286998     0.67300
H1738       H  0.55136157  0.27136409  0.09711115     0.16200
H1739       H  0.57109224  0.22232633  0.93685543     0.15900
N1740       N  0.54190259  0.26418592  0.92089679     0.75000
O1741       O  0.60200869  0.23952301  0.12792542    -0.38500
O1742       O  0.56613291  0.21903200  0.14477186    -0.38400
O1743       O  0.55664707  0.27683243  0.89132787    -0.39100
O1744       O  0.52132665  0.25447602  0.90338513    -0.39200
C1745       C  0.94325040  0.76555428  0.97264884    -0.11500
C1746       C  0.92073189  0.76952483  0.00209778     0.05500
C1747       C  0.91317918  0.74934180  0.03614505    -0.06800
C1748       C  0.92782407  0.72612977  0.03994402    -0.07500
C1749       C  0.95030772  0.72208268  0.01036788    -0.02100
C1750       C  0.95802083  0.74238820  0.97670014     0.04700
N1751       N  0.98086423  0.74010235  0.94646950     0.67300
H1752       H  0.94971682  0.78059172  0.94660993     0.16200
H1753       H  0.92106716  0.71097342  0.06571295     0.15900
N1754       N  0.89029072  0.75156657  0.06624281     0.75000
O1755       O  0.45491251  0.71808428  0.87340499    -0.38500
O1756       O  0.48615162  0.74409318  0.89725329    -0.38400
O1757       O  0.86975819  0.74116051  0.05007616    -0.39100
O1758       O  0.89187613  0.75858444  0.11270135    -0.39200
C1759       C  0.89630501  0.98438313  0.98649006    -0.11500
C1760       C  0.87610853  0.96871101  0.00484673     0.05500
C1761       C  0.85231652  0.98086021  0.01625150    -0.06800
C1762       C  0.84912766  0.00816693  0.00910612    -0.07500
C1763       C  0.86906121  0.02388220  0.98917365    -0.02100
C1764       C  0.89295110  0.01156888  0.97787933     0.04700
N1765       N  0.91409483  0.02623155  0.95748220     0.67300
H1766       H  0.91455222  0.97529836  0.97695196     0.16200
H1767       H  0.83073604  0.01698763  0.01840264     0.15900
N1768       N  0.83124737  0.96580394  0.03588388     0.75000
O1769       O  0.93103424  0.03521003  0.98753135    -0.38500
O1770       O  0.91863569  0.02528366  0.90988441    -0.38400
O1771       O  0.82679097  0.96599431  0.08353472    -0.39100
O1772       O  0.81412799  0.95756992  0.00544234    -0.39200
C1773       C  0.74808144  0.86217176  0.97563831    -0.11500
C1774       C  0.73742437  0.86542487  0.02504158     0.05500
C1775       C  0.75328703  0.86085742  0.06834873    -0.06800
C1776       C  0.77922233  0.85420410  0.06159020    -0.07500
C1777       C  0.78978549  0.85188928  0.01236858    -0.02100
C1778       C  0.77396585  0.85522674  0.96922158     0.04700
N1779       N  0.78409534  0.85139458  0.91864426     0.67300
H1780       H  0.73623589  0.86447929  0.94192410     0.16200
H1781       H  0.79139770  0.85247152  0.09459947     0.15900
N1782       N  0.74388250  0.86420980  0.11957000     0.75000
O1783       O  0.79112989  0.82861899  0.90446448    -0.38500
O1784       O  0.78936423  0.87112569  0.89108439    -0.38400
O1785       O  0.73909474  0.84407701  0.14639776    -0.39100
O1786       O  0.74595315  0.88648132  0.14123446    -0.39200
C1787       C  0.99839720  0.87793716  0.05062455    -0.11500
C1788       C  0.98619122  0.86757907  0.00687916     0.05500
C1789       C  0.50217988  0.85880147  0.96940913    -0.06800
C1790       C  0.52818215  0.85470285  0.98084669    -0.07500
C1791       C  0.53952615  0.86611711  0.02442623    -0.02100
C1792       C  0.52415817  0.88204402  0.05710525     0.04700
N1793       N  0.53460521  0.89451477  0.10182974     0.67300
H1794       H  0.98745299  0.88871671  0.07923454     0.16200
H1795       H  0.53977143  0.84322221  0.95432386     0.15900
N1796       N  0.99009747  0.84089246  0.92653874     0.75000
O1797       O  0.54123207  0.91850208  0.09975108    -0.38500
O1798       O  0.53144116  0.88383433  0.14507752    -0.38400
O1799       O  0.99204544  0.85251252  0.88392770    -0.39100
O1800       O  0.98430775  0.81666967  0.92725835    -0.39200
C1801       C  0.69327687  0.76813052  0.04138835    -0.11500
C1802       C  0.66842780  0.77168381  0.02056161     0.05500
C1803       C  0.65849397  0.75160087  0.98840072    -0.06800
C1804       C  0.67337073  0.72914921  0.97711022    -0.07500
C1805       C  0.69824049  0.72574800  0.99761686    -0.02100
C1806       C  0.70812460  0.74567266  0.03014331     0.04700
N1807       N  0.73339795  0.74373069  0.05137525     0.67300
H1808       H  0.70175351  0.78327562  0.06557471     0.16200
H1809       H  0.66491731  0.71386837  0.95321767     0.15900
N1810       N  0.63304157  0.75314540  0.96809716     0.75000
O1811       O  0.75285643  0.74655713  0.02290152    -0.38500
O1812       O  0.73630114  0.73805325  0.09815221    -0.38400
O1813       O  0.62986237  0.75711564  0.92072359    -0.39100
O1814       O  0.61436430  0.74520119  0.99490487    -0.39200
C1815       C  0.60482430  0.97975563  0.02365397    -0.11500
C1816       C  0.62992762  0.97041503  0.01399326     0.05500
C1817       C  0.64899744  0.98871252  0.99924591    -0.06800
C1818       C  0.64306897  0.01575145  0.99716068    -0.07500
C1819       C  0.61811680  0.02500368  0.00782929    -0.02100
C1820       C  0.59874981  0.00666102  0.02004913     0.04700
N1821       N  0.57313370  0.01507504  0.03135798     0.67300
H1822       H  0.58970256  0.96609712  0.03401483     0.16200
H1823       H  0.65809568  0.02963299  0.98737356     0.15900
N1824       N  0.67462260  0.98041822  0.98781566     0.75000
O1825       O  0.55652854  0.01507677  0.99606689    -0.38500
O1826       O  0.56590068  0.01669362  0.07754228    -0.38400
O1827       O  0.68169031  0.97855401  0.94156101    -0.39100
O1828       O  0.69133614  0.98060074  0.02289557    -0.39200
C1829       C  0.94839002  0.26283821  0.45250668    -0.11500
C1830       C  0.95042676  0.27236282  0.50315859     0.05500
C1831       C  0.93695118  0.25875180  0.54229567    -0.06800
C1832       C  0.92196028  0.23640600  0.53028824    -0.07500
C1833       C  0.92002181  0.22684554  0.47969329    -0.02100
C1834       C  0.93332552  0.24054106  0.44050344     0.04700
N1835       N  0.93076415  0.23286017  0.38786350     0.67300
H1836       H  0.95775556  0.27335742  0.42153068     0.16200
H1837       H  0.91261484  0.22584290  0.56123724     0.15900
N1838       N  0.93913370  0.26660732  0.59489749     0.75000
O1839       O  0.91232262  0.24187688  0.36183463    -0.38500
O1840       O  0.94938271  0.22189931  0.36512292    -0.38400
O1841       O  0.92051866  0.27814220  0.61655035    -0.39100
O1842       O  0.95689108  0.25701603  0.62201387    -0.39200
C1843       C  0.85718281  0.11876595  0.25131070    -0.11500
C1844       C  0.88056799  0.12927173  0.26933530     0.05500
C1845       C  0.89786675  0.14045303  0.23361050    -0.06800
C1846       C  0.89145200  0.14099237  0.18140868    -0.07500
C1847       C  0.86812615  0.13029578  0.16360335    -0.02100
C1848       C  0.85090163  0.11909761  0.19926139     0.04700
N1849       N  0.82649489  0.10879063  0.18383916     0.67300
H1850       H  0.84338032  0.11039735  0.27772151     0.16200
H1851       H  0.90508578  0.14931589  0.15459489     0.15900
N1852       N  0.92231228  0.15063741  0.24909977     0.75000
O1853       O  0.82399759  0.08420659  0.17694419    -0.38500
O1854       O  0.80668015  0.12282150  0.19003817    -0.38400
O1855       O  0.94201615  0.13626295  0.24464979    -0.39100
O1856       O  0.92498826  0.17518603  0.25618629    -0.39200
C1857       C  0.89362358  0.11178512  0.69436599    -0.11500
C1858       C  0.87769101  0.12736828  0.66337791     0.05500
C1859       C  0.85625447  0.14000743  0.68642372    -0.06800
C1860       C  0.85152816  0.13716925  0.73906408    -0.07500
C1861       C  0.86767547  0.12190414  0.77027254    -0.02100
C1862       C  0.88886912  0.10888966  0.74699853     0.04700
N1863       N  0.90617853  0.09294852  0.77599709     0.67300
H1864       H  0.91004116  0.10176096  0.67780984     0.16200
H1865       H  0.83511647  0.14724979  0.75550210     0.15900
N1866       N  0.83846871  0.15519014  0.65702474     0.75000
O1867       O  0.90177484  0.06852664  0.78048204    -0.38500
O1868       O  0.92832577  0.10172526  0.78599589    -0.38400
O1869       O  0.81682155  0.14534267  0.64635020    -0.39100
O1870       O  0.84157808  0.17987408  0.65372689    -0.39200
C1871       C  0.78179413  0.13774352  0.52776136    -0.11500
C1872       C  0.79167999  0.13407816  0.47810995     0.05500
C1873       C  0.77528842  0.12425996  0.43929944    -0.06800
C1874       C  0.74949715  0.11865843  0.45040609    -0.07500
C1875       C  0.73953443  0.12217770  0.50019131    -0.02100
C1876       C  0.75622109  0.13127541  0.53942639     0.04700
N1877       N  0.74783438  0.13306087  0.59170067     0.67300
H1878       H  0.79436294  0.14421341  0.55824987     0.16200
H1879       H  0.73711821  0.11215395  0.41945620     0.15900
N1880       N  0.78435830  0.12061522  0.38791753     0.75000
O1881       O  0.74196216  0.11236563  0.61599775    -0.38500
O1882       O  0.74574908  0.15533947  0.61331441    -0.38400
O1883       O  0.78816106  0.09753018  0.37096594    -0.39100
O1884       O  0.78361541  0.13972390  0.35697120    -0.39200
C1885       C  0.53373827  0.14687304  0.45106175    -0.11500
C1886       C  0.54359749  0.14241407  0.50036962     0.05500
C1887       C  0.52669458  0.13389314  0.53938001    -0.06800
C1888       C  0.50070818  0.12937852  0.52843862    -0.07500
C1889       C  0.98957164  0.12682206  0.47546812    -0.02100
C1890       C  0.00585261  0.13567043  0.43529454     0.04700
N1891       N  0.99687377  0.13757036  0.38358047     0.67300
H1892       H  0.54656288  0.15268943  0.42037854     0.16200
H1893       H  0.98822006  0.11724880  0.55628908     0.15900
N1894       N  0.53554101  0.13015067  0.59079079     0.75000
O1895       O  0.99178931  0.15998615  0.36512422    -0.38500
O1896       O  0.99958976  0.11805782  0.35367489    -0.38400
O1897       O  0.53369963  0.14891993  0.62268178    -0.39100
O1898       O  0.53975961  0.10705054  0.60681500    -0.39200
C1899       C  0.67946069  0.23906841  0.46872217    -0.11500
C1900       C  0.67717968  0.22581937  0.51607000     0.05500
C1901       C  0.69018914  0.23662964  0.55920445    -0.06800
C1902       C  0.70380507  0.26047576  0.55496877    -0.07500
C1903       C  0.70585595  0.27369273  0.50799883    -0.02100
C1904       C  0.69388933  0.26258925  0.46433702     0.04700
N1905       N  0.69535358  0.27557966  0.41578393     0.67300
H1906       H  0.67033264  0.23095177  0.43477037     0.16200
H1907       H  0.71268631  0.26889022  0.58893530     0.15900
N1908       N  0.68952426  0.22392856  0.60809090     0.75000
O1909       O  0.71336938  0.27001140  0.38509555    -0.38500
O1910       O  0.68078391  0.29490148  0.40644054    -0.38400
O1911       O  0.70864942  0.21052853  0.62244252    -0.39100
O1912       O  0.67276307  0.23071885  0.64062702    -0.39200
C1913       C  0.63811656  0.10594070  0.29004705    -0.11500
C1914       C  0.63115918  0.12889793  0.31751726     0.05500
C1915       C  0.61860965  0.14952743  0.29079984    -0.06800
C1916       C  0.61297651  0.14664860  0.23857574    -0.07500
C1917       C  0.61996814  0.12377442  0.21135687    -0.02100
C1918       C  0.63279090  0.10329293  0.23753742     0.04700
N1919       N  0.63979280  0.07928353  0.21195753     0.67300
H1920       H  0.64755007  0.08976093  0.30932662     0.16200
H1921       H  0.60363657  0.16278791  0.21893437     0.15900
N1922       N  0.61181359  0.17384042  0.31546331     0.75000
O1923       O  0.66255352  0.07628297  0.19614727    -0.38500
O1924       O  0.62521186  0.05940348  0.21525893    -0.38400
O1925       O  0.62639546  0.19364517  0.31076251    -0.39100
O1926       O  0.58912765  0.17710296  0.33150364    -0.39200
C1927       C  0.60950863  0.11102665  0.73067604    -0.11500
C1928       C  0.63144758  0.12461061  0.71278930     0.05500
C1929       C  0.64737773  0.13745882  0.74896870    -0.06800
C1930       C  0.64027224  0.13800179  0.80080246    -0.07500
C1931       C  0.61800422  0.12502503  0.81837946    -0.02100
C1932       C  0.60284167  0.11093257  0.78275671     0.04700
N1933       N  0.58000700  0.09735991  0.79816358     0.67300
H1934       H  0.59706127  0.10067696  0.70410691     0.16200
H1935       H  0.65249444  0.14846137  0.82751254     0.15900
N1936       N  0.67097762  0.14979711  0.73422039     0.75000
O1937       O  0.55877917  0.10941111  0.79754925    -0.38500
O1938       O  0.58019152  0.07246629  0.80125896    -0.38400
O1939       O  0.67232163  0.17468206  0.73222928    -0.39100
O1940       O  0.69140550  0.13634771  0.73358974    -0.39200
C1941       C  0.81237141  0.73140061  0.53816451    -0.11500
C1942       C  0.79931316  0.72467984  0.49259828     0.05500
C1943       C  0.80319422  0.74065715  0.44886657    -0.06800
C1944       C  0.81971921  0.76275653  0.45161229    -0.07500
C1945       C  0.83238917  0.76951871  0.49756190    -0.02100
C1946       C  0.82851479  0.75351039  0.54106536     0.04700
N1947       N  0.84105095  0.75929778  0.58863803     0.67300
H1948       H  0.81004047  0.71939374  0.57213048     0.16200
H1949       H  0.82187476  0.77523319  0.41826459     0.15900
N1950       N  0.79104176  0.73448191  0.40114567     0.75000
O1951       O  0.82883824  0.77124169  0.62362686    -0.38500
O1952       O  0.86158154  0.74734410  0.59969889    -0.38400
O1953       O  0.77140197  0.74730220  0.38762301    -0.39100
O1954       O  0.80282272  0.72053022  0.36845112    -0.39200
C1955       C  0.89753278  0.86767808  0.22933627    -0.11500
C1956       C  0.87638845  0.86813889  0.19656449     0.05500
C1957       C  0.85138244  0.86852745  0.21764527    -0.06800
C1958       C  0.84800210  0.86850003  0.27113412    -0.07500
C1959       C  0.86925889  0.86728869  0.30410457    -0.02100
C1960       C  0.89417856  0.86685911  0.28252966     0.04700
N1961       N  0.91652167  0.86677997  0.31386933     0.67300
H1962       H  0.91678224  0.86728307  0.21357339     0.16200
H1963       H  0.82875824  0.86894729  0.28684234     0.15900
N1964       N  0.82924515  0.86925041  0.18536236     0.75000
O1965       O  0.92604434  0.84482095  0.32644187    -0.38500
O1966       O  0.93065008  0.88706186  0.31369136    -0.38400
O1967       O  0.81532911  0.84890010  0.18144553    -0.39100
O1968       O  0.82052477  0.89129557  0.17108023    -0.39200
C1969       C  0.85053818  0.86997598  0.78790858    -0.11500
C1970       C  0.87590909  0.87198019  0.80592470     0.05500
C1971       C  0.89619569  0.87481013  0.77056697    -0.06800
C1972       C  0.89088027  0.87537192  0.71806264    -0.07500
C1973       C  0.86558233  0.87278083  0.69982150    -0.02100
C1974       C  0.84524453  0.87008059  0.73525671     0.04700
N1975       N  0.81912488  0.86812937  0.71870527     0.67300
H1976       H  0.83480410  0.86787738  0.81474788     0.16200
H1977       H  0.90670866  0.87745151  0.69142394     0.15900
N1978       N  0.92217344  0.87808791  0.78727954     0.75000
O1979       O  0.80851654  0.84570269  0.71649415    -0.38500
O1980       O  0.80531251  0.88862655  0.71838047    -0.38400
O1981       O  0.93757499  0.85889670  0.78386794    -0.39100
O1982       O  0.93092456  0.90110875  0.79422111    -0.39200
C1983       C  0.85482671  0.98561701  0.45648038    -0.11500
C1984       C  0.87123608  0.97047659  0.48741844     0.05500
C1985       C  0.89219039  0.98349327  0.51171795    -0.06800
C1986       C  0.89609708  0.01071974  0.50486374    -0.07500
C1987       C  0.87959219  0.02590189  0.47419339    -0.02100
C1988       C  0.85870092  0.01287075  0.44974654     0.04700
N1989       N  0.84077912  0.02693192  0.41857737     0.67300
H1990       H  0.83870552  0.97633674  0.43735706     0.16200
H1991       H  0.91216662  0.02000422  0.52415643     0.15900
N1992       N  0.90993418  0.96952107  0.54347107     0.75000
O1993       O  0.84375821  0.02716907  0.37047867    -0.38500
O1994       O  0.81953100  0.03404264  0.43755520    -0.38400
O1995       O  0.93139269  0.96256817  0.52523920    -0.39100
O1996       O  0.90650102  0.96914721  0.59145002    -0.39200
C1997       C  0.99997247  0.86772626  0.47374945    -0.11500
C1998       C  0.51026585  0.86829227  0.51071622     0.05500
C1999       C  0.49704619  0.84474166  0.52379112    -0.06800
C2000       C  0.96868884  0.86402750  0.56041509    -0.07500
C2001       C  0.95793961  0.85969883  0.51168996    -0.02100
C2002       C  0.97397062  0.86121575  0.46828300     0.04700
N2003       N  0.96379747  0.85897457  0.41785725     0.67300
H2004       H  0.50683400  0.90613068  0.47362538     0.16200
H2005       H  0.95654384  0.86352268  0.59413456     0.15900
N2006       N  0.51027309  0.82276921  0.54566944     0.75000
O2007       O  0.96092427  0.87990392  0.39245465    -0.38500
O2008       O  0.96607769  0.83724359  0.39431324    -0.38400
O2009       O  0.50762748  0.81789641  0.59286361    -0.39100
O2010       O  0.51949398  0.80524355  0.51634647    -0.39200
C2011       C  0.74642893  0.89240321  0.50571437    -0.11500
C2012       C  0.76063227  0.86914809  0.50062126     0.05500
C2013       C  0.74784196  0.84450814  0.50193141    -0.06800
C2014       C  0.72115541  0.84351558  0.50883964    -0.07500
C2015       C  0.70687688  0.86676697  0.51578402    -0.02100
C2016       C  0.71985636  0.89147865  0.51397610     0.04700
N2017       N  0.70645487  0.91594688  0.52000905     0.67300
H2018       H  0.75612924  0.91133751  0.50541754     0.16200
H2019       H  0.71169191  0.82447034  0.50964005     0.15900
N2020       N  0.76168235  0.82029283  0.49568000     0.75000
O2021       O  0.70489705  0.92641750  0.56399889    -0.38500
O2022       O  0.70186579  0.92976248  0.48089514    -0.38400
O2023       O  0.76610627  0.80607630  0.53436816    -0.39100
O2024       O  0.76443515  0.81059603  0.45127447    -0.39200
C2025       C  0.56822275  0.73232726  0.48420272    -0.11500
C2026       C  0.54772402  0.72677930  0.51807509     0.05500
C2027       C  0.54413396  0.74366339  0.56081998    -0.06800
C2028       C  0.56036083  0.76554940  0.56798836    -0.07500
C2029       C  0.58028866  0.77158197  0.53305751    -0.02100
C2030       C  0.58440692  0.75419708  0.49135818     0.04700
N2031       N  0.60447689  0.75867239  0.45492581     0.67300
H2032       H  0.57202067  0.71949844  0.45168355     0.16200
H2033       H  0.55657782  0.77847870  0.60037339     0.15900
N2034       N  0.52387781  0.73934137  0.59695518     0.75000
O2035       O  0.62661046  0.74947859  0.46334555    -0.38500
O2036       O  0.59888684  0.76671274  0.41053675    -0.38400
O2037       O  0.52911426  0.73024769  0.64075762    -0.39100
O2038       O  0.00506713  0.74934277  0.60344454    -0.39200
C2039       C  0.61466248  0.88939914  0.30879289    -0.11500
C2040       C  0.61854905  0.86530162  0.33427897     0.05500
C2041       C  0.62748535  0.84327035  0.30593155    -0.06800
C2042       C  0.63247607  0.84578899  0.25338717    -0.07500
C2043       C  0.62861570  0.86991537  0.22810689    -0.02100
C2044       C  0.61963211  0.89189753  0.25637390     0.04700
N2045       N  0.61659644  0.91725733  0.23316807     0.67300
H2046       H  0.60828763  0.90670126  0.32979324     0.16200
H2047       H  0.63891028  0.82860344  0.23210237     0.15900
N2048       N  0.63070864  0.81796029  0.32918314     0.75000
O2049       O  0.59440812  0.92502701  0.22083272    -0.38500
O2050       O  0.63469453  0.93383403  0.23607411    -0.38400
O2051       O  0.61340714  0.80068457  0.32358031    -0.39100
O2052       O  0.65272947  0.81101898  0.34426070    -0.39200
C2053       C  0.59868942  0.86189762  0.76081091    -0.11500
C2054       C  0.61880954  0.86984857  0.72821228     0.05500
C2055       C  0.64305809  0.87578314  0.75011938    -0.06800
C2056       C  0.64645070  0.87448293  0.80329790    -0.07500
C2057       C  0.62633009  0.86676337  0.83579495    -0.02100
C2058       C  0.60221879  0.86028395  0.81407140     0.04700
N2059       N  0.58076760  0.85315049  0.84552518     0.67300
H2060       H  0.57997955  0.85729168  0.74511615     0.16200
H2061       H  0.66516584  0.87900136  0.81910150     0.15900
N2062       N  0.66487013  0.88204013  0.71900887     0.75000
O2063       O  0.56634778  0.87102852  0.86337556    -0.38500
O2064       O  0.57334111  0.82939661  0.84661546    -0.38400
O2065       O  0.67308417  0.90551393  0.71779169    -0.39100
O2066       O  0.67888166  0.86357661  0.70213657    -0.39200
C2067       C  0.60983265  0.98760613  0.55835708    -0.11500
C2068       C  0.61752551  0.97170901  0.51705738     0.05500
C2069       C  0.63044336  0.98340276  0.47525070    -0.06800
C2070       C  0.63532794  0.01073606  0.47530646    -0.07500
C2071       C  0.62723234  0.02691376  0.51632736    -0.02100
C2072       C  0.61427218  0.01494099  0.55821395     0.04700
N2073       N  0.60598235  0.03003326  0.60170883     0.67300
H2074       H  0.60035493  0.97873927  0.59100133     0.16200
H2075       H  0.64527383  0.01930263  0.44293641     0.15900
N2076       N  0.63966875  0.96766119  0.43342073     0.75000
O2077       O  0.58288553  0.03753902  0.60441245    -0.38500
O2078       O  0.61980099  0.03071270  0.64149207    -0.38400
O2079       O  0.62701641  0.96678394  0.39214047    -0.39100
O2080       O  0.66271992  0.95994590  0.43349895    -0.39200
loop_ 
_geom_bond_atom_site_label_1 
_geom_bond_atom_site_label_2 
_geom_bond_distance 
_geom_bond_site_symmetry_2 
_ccdc_geom_bond_type 
Zn1           O5   1.930       .  S
Zn1           O6   2.002       .  S
Zn1          O10   1.997       .  S
Zn1          O17   1.968       .  S
Zn2           O5   1.934       .  S
Zn2           O7   1.985       .  S
Zn2           O9   2.001       .  S
Zn2          O13   1.999       .  S
Zn3           O5   1.948       .  S
Zn3           O8   2.069       .  S
Zn3          O11   2.043       .  S
Zn3          O14   2.018       .  S
Zn4           O5   1.974       .  S
Zn4          O12   2.000       .  S
Zn4          O15   2.099       .  S
Zn4          O16   2.076       .  S
O6           C18   1.271       .  A
O7           C19   1.270       .  A
O8           C20   1.279       .  A
O9           C18   1.273       .  A
O10          C20   1.270       .  A
O11          C19   1.280       .  A
O12          C21   1.271       .  A
O13          C22   1.271       .  A
O14          C21   1.276       .  A
O15          C22   1.283       .  A
O16          C23   1.284       .  A
O17          C23   1.268       .  A
C18        C1014   1.482       .  S
C19         C958   1.481       .  S
C20        C1028   1.491       .  S
C21        C1000   1.487       .  S
C22         C989   1.506       .  S
C23         C975   1.487       .  S
Zn24         O28   1.929       .  S
Zn24         O29   1.953       .  S
Zn24         O33   1.990       .  S
Zn24         O40   1.991       .  S
Zn25         O28   1.970       .  S
Zn25         O30   2.088       .  S
Zn25         O32   2.077       .  S
Zn25         O36   2.013       .  S
Zn26         O28   1.939       .  S
Zn26         O31   2.002       .  S
Zn26         O34   1.979       .  S
Zn26         O37   1.967       .  S
Zn27         O28   1.957       .  S
Zn27         O35   2.070       .  S
Zn27         O38   2.036       .  S
Zn27         O39   2.058       .  S
O29          C41   1.266       .  A
O30          C42   1.281       .  A
O31          C43   1.271       .  A
O32          C41   1.282       .  A
O33          C43   1.271       .  A
O34          C42   1.268       .  A
O35          C44   1.281       .  A
O36          C45   1.273       .  A
O37          C44   1.268       .  A
O38          C45   1.276       .  A
O39          C46   1.280       .  A
O40          C46   1.268       .  A
C41         C961   1.474       .  S
C42         C905   1.494       .  S
C43         C933   1.470       .  S
C44         C972   1.474       .  S
C45         C919   1.470       .  S
C46         C944   1.495       .  S
Zn47         O51   1.949       .  S
Zn47         O52   1.995       .  S
Zn47         O56   1.996       .  S
Zn47         O63   2.032       .  S
Zn48         O51   1.975       .  S
Zn48         O53   2.011       .  S
Zn48         O55   2.102       .  S
Zn48         O59   2.070       .  S
Zn49         O51   1.963       .  S
Zn49         O54   2.033       .  S
Zn49         O57   2.014       .  S
Zn49         O60   2.067       .  S
Zn50         O51   1.931       .  S
Zn50         O58   2.008       .  S
Zn50         O61   1.969       .  S
Zn50         O62   1.987       .  S
O52          C64   1.269       .  A
O53          C65   1.273       .  A
O54          C66   1.278       .  A
O55          C64   1.283       .  A
O56          C66   1.273       .  A
O57          C65   1.275       .  A
O58          C67   1.271       .  A
O59          C68   1.282       .  A
O60          C67   1.277       .  A
O61          C68   1.269       .  A
O62          C69   1.270       .  A
O63          C69   1.275       .  A
C64         C860   1.502       .  S
C65         C874   1.485       .  S
C66         C835   1.471       .  S
C67        C1031   1.485       .  S
C68         C846   1.478       .  S
C69         C888   1.488       .  S
Zn70         O74   1.957       .  S
Zn70         O75   2.019       .  S
Zn70         O79   1.999       .  S
Zn70         O86   2.026       .  S
Zn71         O74   1.947       .  S
Zn71         O76   2.023       .  S
Zn71         O78   2.042       .  S
Zn71         O82   2.055       .  S
Zn72         O74   1.971       .  S
Zn72         O77   2.059       .  S
Zn72         O80   2.005       .  S
Zn72         O83   2.062       .  S
Zn73         O74   1.924       .  S
Zn73         O81   1.992       .  S
Zn73         O84   1.996       .  S
Zn73         O85   1.997       .  S
O75          C87   1.274       .  A
O76          C88   1.276       .  A
O77          C89   1.281       .  A
O78          C87   1.279       .  A
O79          C89   1.271       .  A
O80          C88   1.271       .  A
O81          C90   1.270       .  A
O82          C91   1.279       .  A
O83          C90   1.280       .  A
O84          C91   1.270       .  A
O85          C92   1.274       .  A
O86          C92   1.275       .  A
C87         C849   1.495       .  S
C88         C818   1.487       .  S
C89         C793   1.496       .  S
C90         C832   1.491       .  S
C91         C947   1.497       .  S
C92         C804   1.486       .  S
Zn93         O97   1.923       .  S
Zn93         O98   1.974       .  S
Zn93        O102   1.985       .  S
Zn93        O109   1.994       .  S
Zn94         O97   1.963   1_556  S
Zn94         O99   2.007       .  S
Zn94        O101   2.052   1_556  S
Zn94        O105   2.060       .  S
Zn95         O97   1.946   1_556  S
Zn95        O100   2.050       .  S
Zn95        O103   2.007       .  S
Zn95        O106   2.041       .  S
Zn96         O97   1.932       .  S
Zn96        O104   2.010       .  S
Zn96        O107   1.997       .  S
Zn96        O108   2.017       .  S
O98         C110   1.268       .  A
O99         C111   1.272       .  A
O100        C112   1.278   1_556  A
O101        C110   1.279       .  A
O102        C112   1.271       .  A
O103        C111   1.274       .  A
O104        C113   1.273       .  A
O105        C114   1.279   1_556  A
O106        C113   1.278   1_556  A
O107        C114   1.272       .  A
O108        C115   1.276       .  A
O109        C115   1.270       .  A
C110        C751   1.481       .  S
C111       C1017   1.479       .  S
C112        C776   1.485       .  S
C113        C734   1.486       .  S
C114        C762   1.497       .  S
C115       C1003   1.483       .  S
Zn116       O120   1.951       .  S
Zn116       O121   1.989       .  S
Zn116       O125   2.015       .  S
Zn116       O132   1.999       .  S
Zn117       O120   1.955   1_554  S
Zn117       O122   2.070       .  S
Zn117       O124   2.045       .  S
Zn117       O128   2.041       .  S
Zn118       O120   1.929       .  S
Zn118       O123   1.978       .  S
Zn118       O126   1.997       .  S
Zn118       O129   1.969       .  S
Zn119       O120   1.970   1_554  S
Zn119       O127   2.052       .  S
Zn119       O130   2.001       .  S
Zn119       O131   2.064       .  S
O121        C133   1.270       .  A
O122        C134   1.280   1_554  A
O123        C135   1.269       .  A
O124        C133   1.280   1_554  A
O125        C135   1.273       .  A
O126        C134   1.269       .  A
O127        C136   1.278       .  A
O128        C137   1.278       .  A
O129        C136   1.268   1_556  A
O130        C137   1.272       .  A
O131        C138   1.280   1_554  A
O132        C138   1.271       .  A
C133        C748   1.491   1_556  S
C134        C720   1.494       .  S
C135        C930   1.472       .  S
C136        C737   1.469       .  S
C137        C916   1.491       .  S
C138        C706   1.497       .  S
Zn139       O143   1.952   1_556  S
Zn139       O144   2.052       .  S
Zn139       O148   2.032       .  S
Zn139       O155   2.017       .  S
Zn140       O143   1.922       .  S
Zn140       O145   1.966       .  S
Zn140       O147   1.987       .  S
Zn140       O151   2.003       .  S
Zn141       O143   1.964   1_556  S
Zn141       O146   1.999       .  S
Zn141       O149   2.066       .  S
Zn141       O152   2.055       .  S
Zn142       O143   1.943       .  S
Zn142       O150   1.981       .  S
Zn142       O153   2.008       .  S
Zn142       O154   2.011       .  S
O144        C156   1.277   1_556  A
O145        C157   1.269   1_554  A
O146        C158   1.273       .  A
O147        C156   1.270       .  A
O148        C158   1.276       .  A
O149        C157   1.279       .  A
O150        C159   1.268       .  A
O151        C160   1.270       .  A
O152        C159   1.279   1_556  A
O153        C160   1.274       .  A
O154        C161   1.273       .  A
O155        C161   1.276   1_556  A
C156        C779   1.475       .  S
C157        C678   1.483       .  S
C158        C891   1.486       .  S
C159        C695   1.482       .  S
C160        C877   1.486       .  S
C161        C664   1.490   1_554  S
Zn162       O166   1.950       .  S
Zn162       O167   2.013       .  S
Zn162       O171   2.026       .  S
Zn162       O178   2.018       .  S
Zn163       O166   1.952   1_554  S
Zn163       O168   2.046       .  S
Zn163       O170   2.025       .  S
Zn163       O174   2.011       .  S
Zn164       O166   1.938       .  S
Zn164       O169   2.013       .  S
Zn164       O172   2.020       .  S
Zn164       O175   1.970       .  S
Zn165       O166   1.965   1_554  S
Zn165       O173   2.062   1_554  S
Zn165       O176   2.008       .  S
Zn165       O177   2.071   1_554  S
O167        C179   1.275       .  A
O168        C180   1.277   1_554  A
O169        C181   1.274       .  A
O170        C179   1.276   1_554  A
O171        C181   1.277       .  A
O172        C180   1.272       .  A
O173        C182   1.280       .  A
O174        C183   1.273       .  A
O175        C182   1.268       .  A
O176        C183   1.273       .  A
O177        C184   1.281       .  A
O178        C184   1.272       .  A
C179        C681   1.492       .  S
C180        C723   1.482       .  S
C181        C821   1.491       .  S
C182        C667   1.488       .  S
C183        C807   1.487       .  S
C184        C653   1.502       .  S
Zn185       O189   1.931       .  S
Zn185       O190   2.020       .  S
Zn185       O194   1.991       .  S
Zn185       O201   1.957       .  S
Zn186       O189   1.933       .  S
Zn186       O191   1.979       .  S
Zn186       O193   2.016       .  S
Zn186       O197   1.995       .  S
Zn187       O189   1.972       .  S
Zn187       O192   2.060       .  S
Zn187       O195   2.046       .  S
Zn187       O198   2.025       .  S
Zn188       O189   1.971       .  S
Zn188       O196   1.987       .  S
Zn188       O199   2.081       .  S
Zn188       O200   2.068       .  S
O190        C202   1.272       .  A
O191        C203   1.272       .  A
O192        C204   1.278       .  A
O193        C202   1.274       .  A
O194        C204   1.271       .  A
O195        C203   1.279       .  A
O196        C205   1.272       .  A
O197        C206   1.269       .  A
O198        C205   1.275       .  A
O199        C206   1.280       .  A
O200        C207   1.280       .  A
O201        C207   1.268       .  A
C202        C622   1.489       .  S
C203        C594   1.476       .  S
C204        C636   1.494       .  S
C205        C608   1.481       .  S
C206        C863   1.490       .  S
C207        C580   1.473       .  S
Zn208      O1252   1.923   1_455  S
Zn208       O213   1.996       .  S
Zn208       O217   1.969       .  S
Zn208       O224   1.992       .  S
Zn209       O212   1.958       .  S
Zn209       O214   2.036       .  S
Zn209       O216   2.059       .  S
Zn209       O220   2.028       .  S
Zn210      O1252   1.963   1_455  S
Zn210       O215   2.065       .  S
Zn210      O1258   2.005   1_455  S
Zn210      O1261   2.065   1_455  S
Zn211       O212   1.942       .  S
Zn211       O219   2.000       .  S
Zn211       O222   2.000       .  S
Zn211       O223   2.025       .  S
O212      Zn1248   1.924       .  S
O212      Zn1250   1.954       .  S
O213       C1265   1.270   1_455  A
O214        C226   1.276       .  A
O215        C227   1.279       .  A
O216        C225   1.278       .  A
O217        C227   1.269       .  A
O218      Zn1250   2.006       .  S
O218        C226   1.272       .  A
O219        C228   1.270       .  A
O220        C229   1.277       .  A
O221      Zn1250   2.057       .  S
O221        C228   1.281       .  A
O222        C229   1.274       .  A
O223        C230   1.274       .  A
O224       C1270   1.271   1_455  A
C225       O1253   1.271       .  A
C225        C569   1.492       .  S
C226        C541   1.482       .  S
C227        C597   1.475       .  S
C228        C790   1.495       .  S
C229        C583   1.479       .  S
C230       O1264   1.269       .  A
C230        C552   1.476       .  S
Zn231       O235   1.937       .  S
Zn231       O236   1.978       .  S
Zn231       O240   1.995       .  S
Zn231       O247   2.023       .  S
Zn232       O235   1.970       .  S
Zn232       O237   2.032       .  S
Zn232       O239   2.056       .  S
Zn232       O243   2.080       .  S
Zn233      O1275   1.957       .  S
Zn233       O241   1.998       .  S
Zn233       O244   2.053       .  S
Zn233      O1278   2.057       .  S
Zn234      O1275   1.919       .  S
Zn234       O242   1.957       .  S
Zn234       O245   1.991       .  S
Zn234       O246   2.005       .  S
O235      Zn1273   1.970   1_455  S
O235      Zn1274   1.925   1_455  S
O236        C248   1.271       .  A
O237        C249   1.277       .  A
O238      Zn1273   2.101   1_455  S
O238        C250   1.283       .  A
O239        C248   1.280       .  A
O240        C250   1.271       .  A
O241       C1289   1.272       .  A
O242        C251   1.268       .  A
O243        C252   1.280       .  A
O244        C251   1.279       .  A
O245       C1292   1.272       .  A
O246       C1293   1.270       .  A
O247        C253   1.273       .  A
C248        C499   1.488       .  S
C249       O1281   1.275   1_455  A
C249        C524   1.477       .  S
C250        C986   1.507       .  S
C251        C482   1.468       .  S
C252       O1285   1.271   1_455  A
C252        C566   1.496       .  S
C253       O1286   1.268   1_455  A
C253        C513   1.473   1_455  S
Zn254       O258   1.917       .  S
Zn254       O259   1.949       .  S
Zn254       O263   2.004       .  S
Zn254       O270   1.983       .  S
Zn255       O258   1.964       .  S
Zn255       O260   2.097       .  S
Zn255       O262   2.085       .  S
Zn255       O266   2.017       .  S
Zn256       O258   1.920       .  S
Zn256       O261   2.003       .  S
Zn256       O264   1.977       .  S
Zn256       O267   1.983       .  S
Zn257       O258   1.949       .  S
Zn257       O265   2.043       .  S
Zn257       O268   2.027       .  S
Zn257       O269   2.068       .  S
O259        C271   1.268       .  A
O260        C272   1.282       .  A
O261        C273   1.272       .  A
O262        C271   1.284       .  A
O263        C273   1.270       .  A
O264        C272   1.269       .  A
O265        C274   1.278       .  A
O266        C275   1.274       .  A
O267        C274   1.272       .  A
O268        C275   1.276       .  A
O269        C276   1.279       .  A
O270        C276   1.269       .  A
C271        C496   1.486       .  S
C272        C902   1.490       .  S
C273        C468   1.478       .  S
C274        C485   1.487       .  S
C275        C454   1.471       .  S
C276        C639   1.474       .  S
Zn277       O281   1.944       .  S
Zn277       O282   1.990       .  S
Zn277       O286   1.985       .  S
Zn277       O293   2.030       .  S
Zn278       O281   1.953   1_556  S
Zn278       O283   2.012       .  S
Zn278       O285   2.014       .  S
Zn278       O289   2.043       .  S
Zn279      O1321   1.987   1_556  S
Zn279       O287   2.001       .  S
Zn279       O290   2.071       .  S
Zn279      O1324   2.076       .  S
Zn280      O1321   1.922       .  S
Zn280       O288   1.959       .  S
Zn280       O291   1.993       .  S
Zn280       O292   2.005       .  S
O281      Zn1319   1.973   1_454  S
O281      Zn1320   1.921   1_455  S
O282        C294   1.272       .  A
O283        C295   1.274       .  A
O284      Zn1319   2.052   1_455  S
O284        C296   1.278   1_556  A
O285        C294   1.275   1_556  A
O286        C296   1.270       .  A
O287       C1335   1.271       .  A
O288        C297   1.268       .  A
O289        C298   1.276   1_556  A
O290        C297   1.280   1_556  A
O291       C1338   1.271       .  A
O292       C1339   1.272       .  A
O293        C299   1.274       .  A
C294        C426   1.470       .  S
C295       O1327   1.268       .  A
C295        C555   1.483       .  S
C296        C692   1.479       .  S
C297        C412   1.475       .  S
C298       O1331   1.270   1_455  A
C298        C443   1.481   1_554  S
C299       O1332   1.273   1_455  A
C299        C538   1.492       .  S
Zn300       O304   1.965       .  S
Zn300       O305   2.074       .  S
Zn300       O309   2.079       .  S
Zn300       O316   2.017       .  S
Zn301       O304   1.917   1_554  S
Zn301       O306   1.976       .  S
Zn301       O308   1.951       .  S
Zn301       O312   1.968       .  S
Zn302       O304   1.940   1_554  S
Zn302       O307   2.005       .  S
Zn302       O310   2.022       .  S
Zn302       O313   1.981       .  S
Zn303       O304   1.958       .  S
Zn303       O311   2.059       .  S
Zn303       O314   2.075       .  S
Zn303       O315   2.036       .  S
O305        C317   1.281       .  A
O306        C318   1.269       .  A
O307        C319   1.271   1_554  A
O308        C317   1.266   1_554  A
O309        C319   1.282       .  A
O310        C318   1.273       .  A
O311        C320   1.280   1_556  A
O312        C321   1.265   1_554  A
O313        C320   1.271       .  A
O314        C321   1.281       .  A
O315        C322   1.278       .  A
O316        C322   1.274       .  A
C317        C429   1.475       .  S
C318        C611   1.483       .  S
C319        C650   1.501       .  S
C320        C415   1.482       .  S
C321        C398   1.494       .  S
C322        C625   1.494       .  S
Zn323       O327   1.914       .  S
Zn323       O328   1.937       .  S
Zn323       O332   1.976       .  S
Zn323       O339   1.977       .  S
Zn324       O327   1.971   1_554  S
Zn324       O329   2.050       .  S
Zn324       O331   2.059       .  S
Zn324       O335   2.016       .  S
Zn325       O327   1.936       .  S
Zn325       O330   2.024       .  S
Zn325       O333   1.984       .  S
Zn325       O336   1.979       .  S
Zn326       O327   1.959   1_554  S
Zn326       O334   2.063       .  S
Zn326       O337   2.038       .  S
Zn326       O338   2.064       .  S
O328        C340   1.266       .  A
O329        C341   1.279   1_554  A
O330        C342   1.272       .  A
O331        C340   1.278   1_554  A
O332        C342   1.266       .  A
O333        C341   1.270       .  A
O334        C343   1.279   1_554  A
O335        C344   1.273       .  A
O336        C343   1.271       .  A
O337        C344   1.278       .  A
O338        C345   1.281   1_554  A
O339        C345   1.267       .  A
C340        C370   1.480       .  S
C341        C765   1.494       .  S
C342        C471   1.468       .  S
C343        C384   1.491   1_556  S
C344        C457   1.482       .  S
C345        C401   1.493       .  S
Zn346       O350   1.928   1_554  S
Zn346       O351   2.017       .  S
Zn346       O355   1.982       .  S
Zn346       O362   1.983       .  S
Zn347      O1390   1.923   1_455  S
Zn347       O352   1.978   1_455  S
Zn347       O354   2.000       .  S
Zn347       O358   1.959       .  S
Zn348       O350   1.960       .  S
Zn348       O353   2.014       .  S
Zn348       O356   2.064       .  S
Zn348       O359   2.026       .  S
Zn349      O1390   1.965   1_556  S
Zn349       O360   2.070   1_655  S
Zn349      O1397   2.013       .  S
Zn349      O1401   2.077       .  S
O350      Zn1387   1.918   1_556  S
O350      Zn1389   1.970       .  S
O351        C363   1.273       .  A
O352       C1404   1.270   1_554  A
O353        C365   1.274       .  A
O354       C1403   1.269   1_455  A
O355        C365   1.272   1_554  A
O356        C364   1.278       .  A
O357      Zn1389   2.001       .  S
O357        C366   1.272       .  A
O358        C367   1.267       .  A
O359        C366   1.274       .  A
O360        C367   1.281   1_556  A
O361      Zn1389   2.078       .  S
O361        C368   1.280       .  A
O362        C368   1.270   1_554  A
C363       O1394   1.271       .  A
C363        C510   1.482       .  S
C364       O1392   1.270   1_556  A
C364        C440   1.477       .  S
C365        C373   1.479       .  S
C366        C527   1.467       .  S
C367        C387   1.487       .  S
C368        C709   1.497       .  S
C369        C370   1.409       .  A
C369        C374   1.394       .  A
C369        H376   1.082       .  S
C370        C371   1.407   1_556  A
C371        C372   1.399       .  A
C371        N378   1.428       .  S
C372        C373   1.409   1_554  A
C372        H377   1.082       .  S
C373        C374   1.409       .  A
C374        N375   1.429       .  S
N375        O379   1.262       .  A
N375        O380   1.262       .  A
N378        O382   1.262       .  A
N378        O381   1.261       .  A
C383        C384   1.412   1_556  A
C383        C388   1.399       .  A
C383        H390   1.081       .  S
C384        C385   1.410       .  A
C385        C386   1.403       .  A
C385        N392   1.429       .  S
C386        C387   1.412       .  A
C386        H391   1.082       .  S
C387        C388   1.406   1_554  A
C388        N389   1.428       .  S
N389        O393   1.262       .  A
N389        O394   1.262       .  A
N392        O396   1.262       .  A
N392        O395   1.262       .  A
C397        C398   1.403       .  A
C397        C402   1.403       .  A
C397        H404   1.081       .  S
C398        C399   1.422   1_556  A
C399        C400   1.400       .  A
C399        N406   1.429       .  S
C400        C401   1.401   1_554  A
C400        H405   1.081       .  S
C401        C402   1.421       .  A
C402        N403   1.429       .  S
N403        O407   1.262       .  A
N403        O408   1.262       .  A
N406        O410   1.261       .  A
N406        O409   1.262       .  A
C411        C412   1.401       .  A
C411        C416   1.395       .  A
C411        H418   1.082       .  S
C412        C413   1.410   1_554  A
C413        C414   1.407       .  A
C413        N420   1.429       .  S
C414        C415   1.408   1_556  A
C414        H419   1.081       .  S
C415        C416   1.413       .  A
C416        N417   1.430       .  S
N417        O421   1.262       .  A
N417        O422   1.262       .  A
N420        O424   1.262       .  A
N420        O423   1.262       .  A
C425        C426   1.395   1_556  A
C425        C430   1.395       .  A
C425        H432   1.083       .  S
C426        C427   1.414       .  A
C427        C428   1.402       .  A
C427        N434   1.430       .  S
C428        C429   1.401   1_554  A
C428        H433   1.083       .  S
C429        C430   1.417       .  A
C430        N431   1.429       .  S
N431        O435   1.261       .  A
N431        O436   1.262       .  A
N434        O438   1.262       .  A
N434        O437   1.262   1_554  A
C439        C444   1.399       .  A
C439       C1480   1.407   1_455  A
C439        H446   1.081       .  S
C440        C441   1.405   1_556  A
C440       C1479   1.405       .  A
C441        C442   1.403       .  A
C441        N448   1.429       .  S
C442       C1483   1.411   1_554  A
C442        H447   1.081       .  S
C443        C444   1.408       .  A
C443       C1482   1.409   1_456  A
C444        N445   1.428       .  S
N445        O449   1.262       .  A
N445        O450   1.262   1_556  A
N448        O452   1.262       .  A
N448        O451   1.262   1_554  A
C453        C454   1.398       .  A
C453        C458   1.400       .  A
C453        H460   1.082       .  S
C454        C455   1.409       .  A
C455        C456   1.401       .  A
C455        N462   1.428       .  S
C456        C457   1.403       .  A
C456        H461   1.082       .  S
C457        C458   1.414       .  A
C458        N459   1.426       .  S
N459        O463   1.262       .  A
N459        O464   1.262       .  A
N462        O466   1.262       .  A
N462        O465   1.261       .  A
C467        C468   1.403       .  A
C467        C472   1.395       .  A
C467        H474   1.081       .  S
C468        C469   1.416       .  A
C469        C470   1.401       .  A
C469        N476   1.429       .  S
C470        C471   1.400       .  A
C470        H475   1.081       .  S
C471        C472   1.409       .  A
C472        N473   1.430       .  S
N473        O477   1.262       .  A
N473        O478   1.262       .  A
N476        O480   1.262       .  A
N476        O479   1.262       .  A
C481        C482   1.403       .  A
C481        C486   1.398       .  A
C481        H488   1.081       .  S
C482        C483   1.404       .  A
C483        C484   1.400       .  A
C483        N490   1.429       .  S
C484        C485   1.412       .  A
C484        H489   1.080       .  S
C485        C486   1.414       .  A
C486        N487   1.429       .  S
N487        O491   1.262       .  A
N487        O492   1.262       .  A
N490        O494   1.262       .  A
N490        O493   1.262       .  A
C495        C496   1.412       .  A
C495        C500   1.399       .  A
C495        H502   1.082       .  S
C496        C497   1.406       .  A
C497        C498   1.402       .  A
C497        N504   1.428       .  S
C498        C499   1.413       .  A
C498        H503   1.082       .  S
C499        C500   1.408       .  A
C500        N501   1.429       .  S
N501        O505   1.262       .  A
N501        O506   1.262       .  A
N504        O508   1.262       .  A
N504        O507   1.261       .  A
C509        C510   1.404       .  A
C509        C514   1.400       .  A
C509        H516   1.082       .  S
C510       C1551   1.415       .  A
C511        C512   1.400       .  A
C511       C1550   1.414   1_455  A
C511        N518   1.429       .  S
C512        C513   1.401   1_455  A
C512        H517   1.082       .  S
C513       C1554   1.412       .  A
C514       C1553   1.410       .  A
C514        N515   1.429       .  S
N515        O519   1.262       .  A
N515        O520   1.262       .  A
N518        O522   1.262       .  A
N518        O521   1.262       .  A
C523        C528   1.399       .  A
C523       C1564   1.406       .  A
C523        H530   1.080       .  S
C524        C525   1.409       .  A
C524       C1563   1.405   1_455  A
C525        C526   1.399       .  A
C525        N532   1.428       .  S
C526       C1567   1.403   1_455  A
C526        H531   1.081       .  S
C527        C528   1.406       .  A
C527       C1566   1.402       .  A
C528        N529   1.429       .  S
N529        O533   1.262       .  A
N529        O534   1.262       .  A
N532        O536   1.262       .  A
N532        O535   1.262       .  A
C537        C542   1.400       .  A
C537       C1578   1.409       .  A
C537        H544   1.082       .  S
C538        C539   1.414       .  A
C538       C1577   1.409   1_455  A
C539        C540   1.400       .  A
C539        N546   1.429       .  S
C540       C1581   1.407   1_455  A
C540        H545   1.082       .  S
C541        C542   1.409       .  A
C541       C1580   1.406       .  A
C542        N543   1.429       .  S
N543        O547   1.262       .  A
N543        O548   1.262       .  A
N546        O550   1.262       .  A
N546        O549   1.262       .  A
C551        C552   1.402       .  A
C551        C556   1.400       .  A
C551        H558   1.081       .  S
C552       C1593   1.411       .  A
C553        C554   1.396       .  A
C553       C1592   1.412   1_455  A
C553        N560   1.429       .  S
C554        C555   1.404       .  A
C554        H559   1.081       .  S
C555       C1596   1.417   1_455  A
C556       C1595   1.415       .  A
C556        N557   1.429       .  S
N557        O561   1.262       .  A
N557        O562   1.262       .  A
N560        O564   1.262       .  A
N560        O563   1.262   1_455  A
C565        C570   1.402       .  A
C565       C1606   1.411       .  A
C565        H572   1.082       .  S
C566        C567   1.412       .  A
C566       C1605   1.410   1_455  A
C567        C568   1.406       .  A
C567        N574   1.428       .  S
C568       C1609   1.411   1_455  A
C568        H573   1.082       .  S
C569        C570   1.412       .  A
C569       C1608   1.410       .  A
C570        N571   1.429       .  S
N571        O575   1.262       .  A
N571        O576   1.262       .  A
N574        O578   1.262       .  A
N574        O577   1.262       .  A
C579        C580   1.403       .  A
C579        C584   1.395       .  A
C579        H586   1.083       .  S
C580        C581   1.408       .  A
C581        C582   1.404       .  A
C581        N588   1.429       .  S
C582        C583   1.408       .  A
C582        H587   1.082       .  S
C583        C584   1.410       .  A
C584        N585   1.429       .  S
N585        O589   1.262       .  A
N585        O590   1.262       .  A
N588        O592   1.262       .  A
N588        O591   1.262       .  A
C593        C594   1.410       .  A
C593        C598   1.401       .  A
C593        H600   1.082       .  S
C594        C595   1.404       .  A
C595        C596   1.399       .  A
C595        N602   1.428       .  S
C596        C597   1.408       .  A
C596        H601   1.082       .  S
C597        C598   1.405       .  A
C598        N599   1.428       .  S
N599        O603   1.262       .  A
N599        O604   1.262       .  A
N602        O606   1.262       .  A
N602        O605   1.262       .  A
C607        C608   1.407       .  A
C607        C612   1.397       .  A
C607        H614   1.082       .  S
C608        C609   1.410       .  A
C609        C610   1.397       .  A
C609        N616   1.429       .  S
C610        C611   1.409       .  A
C610        H615   1.082       .  S
C611        C612   1.411       .  A
C612        N613   1.429       .  S
N613        O617   1.262       .  A
N613        O618   1.262       .  A
N616        O620   1.262       .  A
N616        O619   1.262       .  A
C621        C622   1.405       .  A
C621        C626   1.400       .  A
C621        H628   1.081       .  S
C622        C623   1.414       .  A
C623        C624   1.403       .  A
C623        N630   1.429       .  S
C624        C625   1.408       .  A
C624        H629   1.081       .  S
C625        C626   1.417       .  A
C626        N627   1.429       .  S
N627        O631   1.262       .  A
N627        O632   1.262       .  A
N630        O634   1.262       .  A
N630        O633   1.262       .  A
C635        C636   1.413       .  A
C635        C640   1.402       .  A
C635        H642   1.081       .  S
C636        C637   1.414       .  A
C637        C638   1.403       .  A
C637        N644   1.428       .  S
C638        C639   1.403       .  A
C638        H643   1.082       .  S
C639        C640   1.404       .  A
C640        N641   1.429       .  S
N641        O645   1.262       .  A
N641        O646   1.262       .  A
N644        O648   1.262       .  A
N644        O647   1.262       .  A
C649        C650   1.406       .  A
C649        C654   1.408       .  A
C649        H656   1.082       .  S
C650        C651   1.419   1_556  A
C651        C652   1.406       .  A
C651        N658   1.429       .  S
C652        C653   1.405   1_554  A
C652        H657   1.082       .  S
C653        C654   1.420       .  A
C654        N655   1.429       .  S
N655        O659   1.262       .  A
N655        O660   1.262       .  A
N658        O662   1.262       .  A
N658        O661   1.262       .  A
C663        C668   1.394       .  A
C663       C1704   1.401   1_556  A
C663       H1710   1.080       .  S
C664        C665   1.418   1_456  A
C664       C1703   1.406   1_455  A
C665       C1706   1.403       .  A
C665        N672   1.428   1_655  S
C666        C667   1.404   1_554  A
C666       C1705   1.406       .  A
C666        H671   1.080       .  S
C667        C668   1.417       .  A
C668        N669   1.428       .  S
N669        O673   1.261       .  A
N669        O674   1.262       .  A
H670       C1703   1.080   1_455  S
N672        O676   1.262   1_455  A
N672        O675   1.262       .  A
C677        C678   1.406   1_554  A
C677        C682   1.397       .  A
C677        H684   1.077       .  S
C678        C679   1.408       .  A
C679        C680   1.405       .  A
C679        N686   1.429       .  S
C680        C681   1.413       .  A
C680        H685   1.076       .  S
C681        C682   1.414   1_556  A
C682        N683   1.429       .  S
N683        O687   1.262       .  A
N683        O688   1.262       .  A
N686        O690   1.262       .  A
N686        O689   1.262       .  A
C691        C692   1.403       .  A
C691        C696   1.400       .  A
C691        H698   1.082       .  S
C692        C693   1.412   1_554  A
C693        C694   1.404       .  A
C693        N700   1.429       .  S
C694        C695   1.404   1_556  A
C694        H699   1.081       .  S
C695        C696   1.414       .  A
C696        N697   1.430       .  S
N697        O701   1.262       .  A
N697        O702   1.262       .  A
N700        O704   1.261       .  A
N700        O703   1.262       .  A
C705        C706   1.412       .  A
C705        C710   1.406       .  A
C705        H712   1.081       .  S
C706        C707   1.412   1_556  A
C707        C708   1.403       .  A
C707        N714   1.429       .  S
C708        C709   1.411   1_554  A
C708        H713   1.081       .  S
C709        C710   1.412       .  A
C710        N711   1.429       .  S
N711       O1755   1.262       .  A
N711       O1756   1.262       .  A
N714        O718   1.262       .  A
N714        O717   1.262       .  A
O715       N1751   1.262       .  A
O716       N1751   1.262   1_455  A
C719        C720   1.405   1_554  A
C719        C724   1.405   1_564  A
C719        H726   1.082       .  S
C720        C721   1.421       .  A
C721        C722   1.403   1_565  A
C721        N728   1.429       .  S
C722        C723   1.399       .  A
C722        H727   1.083       .  S
C723        C724   1.413       .  A
C724        N725   1.429   1_556  S
N725        O729   1.262       .  A
N725        O730   1.262   1_554  A
N728        O732   1.262       .  A
N728        O731   1.262   1_556  A
C733        C734   1.407   1_556  A
C733        C738   1.402       .  A
C733        H740   1.084       .  S
C734        C735   1.415       .  A
C735        C736   1.402       .  A
C735        N742   1.429       .  S
C736        C737   1.400       .  A
C736        H741   1.085       .  S
C737        C738   1.407   1_554  A
C738        N739   1.430       .  S
N739        O743   1.262       .  A
N739        O744   1.262       .  A
N742        O746   1.262       .  A
N742        O745   1.262       .  A
C747        C748   1.404       .  A
C747       C1792   1.400       .  A
C747        H754   1.083       .  S
C748       C1789   1.421   1_554  A
C749        C750   1.402       .  A
C749       C1788   1.422   1_456  A
C749       N1796   1.429   1_455  S
C750        C751   1.400   1_556  A
C750        H755   1.083       .  S
C751        C752   1.414       .  A
C752       C1787   1.398   1_455  A
C752        N753   1.429       .  S
N753        O757   1.262       .  A
N753        O758   1.262       .  A
N756       C1789   1.430       .  S
N756        O760   1.262       .  A
N756        O759   1.262       .  A
C761        C762   1.413       .  A
C761        C766   1.402       .  A
C761        H768   1.083       .  S
C762        C763   1.412   1_554  A
C763        C764   1.403       .  A
C763        N770   1.429       .  S
C764        C765   1.411       .  A
C764        H769   1.083       .  S
C765        C766   1.410   1_556  A
C766        N767   1.429       .  S
N767        O771   1.262       .  A
N767        O772   1.262       .  A
N770        O774   1.262       .  A
N770        O773   1.262       .  A
C775        C776   1.411       .  A
C775        C780   1.401   1_565  A
C775        H782   1.081       .  S
C776        C777   1.410   1_554  A
C777        C778   1.401   1_565  A
C777        N784   1.428       .  S
C778        C779   1.405   1_556  A
C778        H783   1.081       .  S
C779        C780   1.405       .  A
C780        N781   1.429       .  S
N781        O785   1.262   1_554  A
N781        O786   1.262       .  A
N784        O788   1.262   1_556  A
N784        O787   1.262       .  A
C789        C790   1.403       .  A
C789        C794   1.402       .  A
C789        H796   1.083       .  S
C790        C791   1.419       .  A
C791        C792   1.404       .  A
C791        N798   1.429       .  S
C792        C793   1.405       .  A
C792        H797   1.083       .  S
C793        C794   1.419       .  A
C794        N795   1.429       .  S
N795        O799   1.262       .  A
N795        O800   1.261       .  A
N798        O802   1.262       .  A
N798        O801   1.262       .  A
C803        C804   1.407       .  A
C803        C808   1.397       .  A
C803        H810   1.081       .  S
C804        C805   1.413       .  A
C805        C806   1.400       .  A
C805        N812   1.429       .  S
C806        C807   1.408       .  A
C806        H811   1.081       .  S
C807        C808   1.414       .  A
C808        N809   1.429       .  S
N809        O813   1.262       .  A
N809        O814   1.262       .  A
N812        O816   1.262       .  A
N812        O815   1.262       .  A
C817        C818   1.402       .  A
C817        C822   1.399       .  A
C817        H824   1.082       .  S
C818        C819   1.416       .  A
C819        C820   1.400       .  A
C819        N826   1.429       .  S
C820        C821   1.406       .  A
C820        H825   1.081       .  S
C821        C822   1.417       .  A
C822        N823   1.427       .  S
N823        O827   1.262       .  A
N823        O828   1.261       .  A
N826        O830   1.262       .  A
N826        O829   1.262       .  A
C831        C832   1.405       .  A
C831        C836   1.405       .  A
C831        H838   1.084       .  S
C832        C833   1.421       .  A
C833        C834   1.398       .  A
C833        N840   1.426       .  S
C834        C835   1.392       .  A
C834        H839   1.084       .  S
C835        C836   1.412       .  A
C836        N837   1.430       .  S
N837        O841   1.261       .  A
N837        O842   1.262       .  A
N840        O844   1.260       .  A
N840        O843   1.262       .  A
C845        C846   1.400       .  A
C845       C1890   1.404       .  A
C845        H852   1.077       .  S
C846        C847   1.411       .  A
C847        C848   1.400       .  A
C847        N854   1.430       .  S
C848       C1889   1.406   1_455  A
C848       H1893   1.080   1_455  S
C849        C850   1.420       .  A
C849       C1888   1.406       .  A
C850       C1885   1.406       .  A
C850        N851   1.429       .  S
N851        O855   1.261       .  A
N851        O856   1.262       .  A
H853       C1888   1.081       .  S
N854        O858   1.262       .  A
N854        O857   1.262       .  A
C859        C860   1.410       .  A
C859        C864   1.413       .  A
C859        H866   1.083       .  S
C860        C861   1.419       .  A
C861        C862   1.403       .  A
C861        N868   1.430       .  S
C862        C863   1.401       .  A
C862        H867   1.083       .  S
C863        C864   1.413       .  A
C864        N865   1.429       .  S
N865        O869   1.262       .  A
N865        O870   1.262       .  A
N868        O872   1.262       .  A
N868        O871   1.262       .  A
C873        C874   1.405       .  A
C873        C878   1.400       .  A
C873        H880   1.081       .  S
C874        C875   1.414       .  A
C875        C876   1.397       .  A
C875        N882   1.429       .  S
C876        C877   1.405       .  A
C876        H881   1.081       .  S
C877        C878   1.415       .  A
C878        N879   1.429       .  S
N879        O883   1.262       .  A
N879        O884   1.262       .  A
N882        O886   1.261       .  A
N882        O885   1.262       .  A
C887        C888   1.410       .  A
C887        C892   1.400       .  A
C887        H894   1.081       .  S
C888        C889   1.412       .  A
C889        C890   1.399       .  A
C889        N896   1.429       .  S
C890        C891   1.408       .  A
C890        H895   1.081       .  S
C891        C892   1.411       .  A
C892        N893   1.429       .  S
N893        O897   1.262       .  A
N893        O898   1.262       .  A
N896        O900   1.262       .  A
N896        O899   1.262       .  A
C901        C902   1.404       .  A
C901        C906   1.400       .  A
C901        H908   1.082       .  S
C902        C903   1.413       .  A
C903        C904   1.412       .  A
C903        N910   1.428       .  S
C904        C905   1.408       .  A
C904        H909   1.081       .  S
C905        C906   1.416       .  A
C906        N907   1.430       .  S
N907        O911   1.262       .  A
N907        O912   1.262       .  A
N910        O914   1.262       .  A
N910        O913   1.262       .  A
C915        C916   1.407       .  A
C915        C920   1.402       .  A
C915        H922   1.081       .  S
C916        C917   1.420       .  A
C917        C918   1.400       .  A
C917        N924   1.429       .  S
C918        C919   1.397       .  A
C918        H923   1.082       .  S
C919        C920   1.407       .  A
C920        N921   1.428       .  S
N921        O925   1.261       .  A
N921        O926   1.262       .  A
N924        O928   1.262       .  A
N924        O927   1.262       .  A
C929        C930   1.405       .  A
C929        C934   1.395       .  A
C929        H936   1.080       .  S
C930        C931   1.409       .  A
C931        C932   1.397       .  A
C931        N938   1.429       .  S
C932        C933   1.405       .  A
C932        H937   1.080       .  S
C933        C934   1.408       .  A
C934        N935   1.429       .  S
N935        O939   1.262       .  A
N935        O940   1.262       .  A
N938        O942   1.262       .  A
N938        O941   1.262       .  A
C943        C944   1.401       .  A
C943        C948   1.400   1_565  A
C943        H950   1.081       .  S
C944        C945   1.421       .  A
C945        C946   1.405   1_565  A
C945        N952   1.430       .  S
C946        C947   1.405       .  A
C946        H951   1.081       .  S
C947        C948   1.419       .  A
C948        N949   1.428       .  S
N949        O953   1.262       .  A
N949        O954   1.261       .  A
N952        O956   1.262       .  A
N952        O955   1.262       .  A
C957        C962   1.397       .  A
C957       C1998   1.399       .  A
C957       H2004   1.081       .  S
C958        C959   1.414   1_455  A
C958       C1997   1.401   1_455  A
C959       C2000   1.401       .  A
C959        N966   1.428   1_655  S
C960        C961   1.399       .  A
C960       C1999   1.404       .  A
C960        H965   1.081       .  S
C961        C962   1.414       .  A
C962        N963   1.429       .  S
N963        O967   1.261       .  A
N963        O968   1.261       .  A
H964       C1997   1.081   1_455  S
N966        O970   1.262       .  A
N966        O969   1.262       .  A
C971        C972   1.395       .  A
C971        C976   1.401       .  A
C971        H978   1.082       .  S
C972        C973   1.415       .  A
C973        C974   1.402       .  A
C973        N980   1.430       .  S
C974        C975   1.400       .  A
C974        H979   1.081       .  S
C975        C976   1.423       .  A
C976        N977   1.430       .  S
N977        O981   1.262       .  A
N977        O982   1.262       .  A
N980        O984   1.262       .  A
N980        O983   1.262       .  A
C985        C986   1.414       .  A
C985        C990   1.408       .  A
C985        H992   1.083       .  S
C986        C987   1.413       .  A
C987        C988   1.409       .  A
C987        N994   1.428       .  S
C988        C989   1.413       .  A
C988        H993   1.083       .  S
C989        C990   1.413       .  A
C990        N991   1.428       .  S
N991        O995   1.262       .  A
N991        O996   1.262       .  A
N994       O2038   1.262       .  A
N994        O997   1.262       .  A
O998       N2034   1.262       .  A
C999       C1000   1.405       .  A
C999       C1004   1.398       .  A
C999       H1006   1.081       .  S
C1000      C1001   1.417       .  A
C1001      C1002   1.398       .  A
C1001      N1008   1.429       .  S
C1002      C1003   1.403       .  A
C1002      H1007   1.081       .  S
C1003      C1004   1.415       .  A
C1004      N1005   1.429       .  S
N1005      O1009   1.262       .  A
N1005      O1010   1.262       .  A
N1008      O1012   1.262       .  A
N1008      O1011   1.262       .  A
C1013      C1014   1.406       .  A
C1013      C1018   1.398       .  A
C1013      H1020   1.081       .  S
C1014      C1015   1.414       .  A
C1015      C1016   1.397       .  A
C1015      N1022   1.429       .  S
C1016      C1017   1.403       .  A
C1016      H1021   1.081       .  S
C1017      C1018   1.412       .  A
C1018      N1019   1.430       .  S
N1019      O1023   1.262       .  A
N1019      O1024   1.262       .  A
N1022      O1026   1.262       .  A
N1022      O1025   1.262       .  A
C1027      C1028   1.407       .  A
C1027      C1032   1.409   1_565  A
C1027      H1034   1.081       .  S
C1028      C1029   1.415       .  A
C1029      C1030   1.402   1_565  A
C1029      N1036   1.429       .  S
C1030      C1031   1.402       .  A
C1030      H1035   1.081       .  S
C1031      C1032   1.412       .  A
C1032      N1033   1.428       .  S
N1033      O1037   1.262       .  A
N1033      O1038   1.262       .  A
N1036      O1040   1.262       .  A
N1036      O1039   1.262       .  A
Zn1041     O1045   1.931       .  S
Zn1041     O1046   2.008       .  S
Zn1041     O1050   2.010       .  S
Zn1041     O1057   1.977       .  S
Zn1042     O1045   1.944       .  S
Zn1042     O1047   2.010       .  S
Zn1042     O1049   2.026       .  S
Zn1042     O1053   1.975       .  S
Zn1043     O1045   1.944       .  S
Zn1043     O1048   2.045       .  S
Zn1043     O1051   2.023       .  S
Zn1043     O1054   1.987       .  S
Zn1044     O1045   1.971       .  S
Zn1044     O1052   2.012       .  S
Zn1044     O1055   2.060       .  S
Zn1044     O1056   2.048       .  S
O1046      C1058   1.273       .  A
O1047      C1059   1.274       .  A
O1048      C1060   1.276       .  A
O1049      C1058   1.276       .  A
O1050      C1060   1.272       .  A
O1051      C1059   1.276       .  A
O1052      C1061   1.271       .  A
O1053      C1062   1.268       .  A
O1054      C1061   1.271       .  A
O1055      C1062   1.278       .  A
O1056      C1063   1.280       .  A
O1057      C1063   1.269       .  A
C1058      C2054   1.487       .  S
C1059      C1998   1.480       .  S
C1060      C2068   1.476       .  S
C1061      C2040   1.478       .  S
C1062      C2029   1.494       .  S
C1063      C2015   1.484       .  S
Zn1064     O1068   1.932       .  S
Zn1064     O1069   1.965       .  S
Zn1064     O1073   1.987       .  S
Zn1064     O1080   1.998       .  S
Zn1065     O1068   1.971       .  S
Zn1065     O1070   2.082       .  S
Zn1065     O1072   2.073       .  S
Zn1065     O1076   2.014       .  S
Zn1066     O1068   1.954       .  S
Zn1066     O1071   2.016       .  S
Zn1066     O1074   1.984       .  S
Zn1066     O1077   1.974       .  S
Zn1067     O1068   1.968       .  S
Zn1067     O1075   2.055       .  S
Zn1067     O1078   2.040       .  S
Zn1067     O1079   2.064       .  S
O1069      C1081   1.268       .  A
O1070      C1082   1.281       .  A
O1071      C1083   1.272       .  A
O1072      C1081   1.281       .  A
O1073      C1083   1.270       .  A
O1074      C1082   1.269       .  A
O1075      C1084   1.279       .  A
O1076      C1085   1.273       .  A
O1077      C1084   1.268       .  A
O1078      C1085   1.277       .  A
O1079      C1086   1.280       .  A
O1080      C1086   1.270       .  A
C1081      C2001   1.476       .  S
C1082      C1945   1.485       .  S
C1083      C1973   1.473       .  S
C1084      C2012   1.470       .  S
C1085      C1959   1.481       .  S
C1086      C1984   1.499       .  S
Zn1087     O1091   1.951       .  S
Zn1087     O1092   2.011       .  S
Zn1087     O1096   1.999       .  S
Zn1087     O1103   2.041       .  S
Zn1088     O1091   1.970       .  S
Zn1088     O1093   2.011       .  S
Zn1088     O1095   2.083       .  S
Zn1088     O1099   2.070       .  S
Zn1089     O1091   1.958       .  S
Zn1089     O1094   2.026       .  S
Zn1089     O1097   2.020       .  S
Zn1089     O1100   2.055       .  S
Zn1090     O1091   1.929       .  S
Zn1090     O1098   1.997       .  S
Zn1090     O1101   1.979       .  S
Zn1090     O1102   1.978       .  S
O1092      C1104   1.273       .  A
O1093      C1105   1.273       .  A
O1094      C1106   1.277       .  A
O1095      C1104   1.282       .  A
O1096      C1106   1.273       .  A
O1097      C1105   1.275       .  A
O1098      C1107   1.269       .  A
O1099      C1108   1.282       .  A
O1100      C1107   1.278       .  A
O1101      C1108   1.270       .  A
O1102      C1109   1.270       .  A
O1103      C1109   1.276       .  A
C1104      C1900   1.500       .  S
C1105      C1914   1.490       .  S
C1106      C1875   1.488       .  S
C1107      C2071   1.492       .  S
C1108      C1886   1.482       .  S
C1109      C1928   1.488       .  S
Zn1110     O1114   1.962       .  S
Zn1110     O1115   2.005       .  S
Zn1110     O1119   2.014       .  S
Zn1110     O1126   2.024       .  S
Zn1111     O1114   1.954       .  S
Zn1111     O1116   2.034       .  S
Zn1111     O1118   2.045       .  S
Zn1111     O1122   2.056       .  S
Zn1112     O1114   1.967       .  S
Zn1112     O1117   2.067       .  S
Zn1112     O1120   2.004       .  S
Zn1112     O1123   2.054       .  S
Zn1113     O1114   1.935       .  S
Zn1113     O1121   1.986       .  S
Zn1113     O1124   2.009       .  S
Zn1113     O1125   1.985       .  S
O1115      C1127   1.273       .  A
O1116      C1128   1.277       .  A
O1117      C1129   1.281       .  A
O1118      C1127   1.280       .  A
O1119      C1129   1.272       .  A
O1120      C1128   1.271       .  A
O1121      C1130   1.270       .  A
O1122      C1131   1.279       .  A
O1123      C1130   1.280       .  A
O1124      C1131   1.271       .  A
O1125      C1132   1.272       .  A
O1126      C1132   1.274       .  A
C1127      C1889   1.491       .  S
C1128      C1858   1.490       .  S
C1129      C1833   1.495       .  S
C1130      C1872   1.480       .  S
C1131      C1987   1.499       .  S
C1132      C1844   1.483       .  S
Zn1133     O1137   1.926       .  S
Zn1133     O1138   1.980       .  S
Zn1133     O1142   1.982       .  S
Zn1133     O1149   2.002       .  S
Zn1134     O1137   1.966   1_556  S
Zn1134     O1139   2.007       .  S
Zn1134     O1141   2.053   1_556  S
Zn1134     O1145   2.074   1_556  S
Zn1135     O1137   1.951   1_556  S
Zn1135     O1140   2.063       .  S
Zn1135     O1143   2.019       .  S
Zn1135     O1146   2.045       .  S
Zn1136     O1137   1.934       .  S
Zn1136     O1144   1.999       .  S
Zn1136     O1147   1.989       .  S
Zn1136     O1148   2.006       .  S
O1138      C1150   1.269       .  A
O1139      C1151   1.272       .  A
O1140      C1152   1.279   1_556  A
O1141      C1150   1.281       .  A
O1142      C1152   1.270       .  A
O1143      C1151   1.275       .  A
O1144      C1153   1.272       .  A
O1145      C1154   1.281       .  A
O1146      C1153   1.279   1_556  A
O1147      C1154   1.270       .  A
O1148      C1155   1.273       .  A
O1149      C1155   1.272       .  A
C1150      C1791   1.484       .  S
C1151      C2057   1.480       .  S
C1152      C1816   1.487       .  S
C1153      C1774   1.488       .  S
C1154      C1802   1.499       .  S
C1155      C2043   1.475       .  S
Zn1156     O1160   1.947   1_556  S
Zn1156     O1161   1.991       .  S
Zn1156     O1165   2.013       .  S
Zn1156     O1172   2.004       .  S
Zn1157     O1160   1.948       .  S
Zn1157     O1162   2.068       .  S
Zn1157     O1164   2.045       .  S
Zn1157     O1168   2.033       .  S
Zn1158     O1160   1.927   1_556  S
Zn1158     O1163   1.991       .  S
Zn1158     O1166   2.006       .  S
Zn1158     O1169   1.969       .  S
Zn1159     O1160   1.965       .  S
Zn1159     O1167   2.039       .  S
Zn1159     O1170   2.001       .  S
Zn1159     O1171   2.066       .  S
O1161      C1173   1.270   1_556  A
O1162      C1174   1.279       .  A
O1163      C1175   1.271       .  A
O1164      C1173   1.280       .  A
O1165      C1175   1.274       .  A
O1166      C1174   1.271   1_556  A
O1167      C1176   1.276       .  A
O1168      C1177   1.277       .  A
O1169      C1176   1.269   1_556  A
O1170      C1177   1.271       .  A
O1171      C1178   1.280   1_554  A
O1172      C1178   1.273       .  A
C1173      C1788   1.491       .  S
C1174      C1760   1.484       .  S
C1175      C1970   1.469       .  S
C1176      C1777   1.467       .  S
C1177      C1956   1.470       .  S
C1178      C1746   1.499   1_556  S
Zn1179     O1183   1.952   1_556  S
Zn1179     O1184   2.054       .  S
Zn1179     O1188   2.035       .  S
Zn1179     O1195   2.018       .  S
Zn1180     O1183   1.926       .  S
Zn1180     O1185   1.975       .  S
Zn1180     O1187   1.995       .  S
Zn1180     O1191   2.009       .  S
Zn1181     O1183   1.959   1_556  S
Zn1181     O1186   1.989       .  S
Zn1181     O1189   2.055       .  S
Zn1181     O1192   2.060       .  S
Zn1182     O1183   1.948       .  S
Zn1182     O1190   1.994       .  S
Zn1182     O1193   2.017       .  S
Zn1182     O1194   2.013       .  S
O1184      C1196   1.277   1_556  A
O1185      C1197   1.270       .  A
O1186      C1198   1.271       .  A
O1187      C1196   1.271       .  A
O1188      C1198   1.275       .  A
O1189      C1197   1.279   1_556  A
O1190      C1199   1.270       .  A
O1191      C1200   1.272       .  A
O1192      C1199   1.279   1_556  A
O1193      C1200   1.275       .  A
O1194      C1201   1.273       .  A
O1195      C1201   1.278   1_556  A
C1196      C1819   1.479       .  S
C1197      C1718   1.477   1_554  S
C1198      C1931   1.483       .  S
C1199      C1735   1.485       .  S
C1200      C1917   1.479       .  S
C1201      C1704   1.488       .  S
Zn1202     O1206   1.950       .  S
Zn1202     O1207   2.011       .  S
Zn1202     O1211   2.037       .  S
Zn1202     O1218   2.022       .  S
Zn1203     O1206   1.952   1_554  S
Zn1203     O1208   2.052       .  S
Zn1203     O1210   2.023       .  S
Zn1203     O1214   2.007       .  S
Zn1204     O1206   1.943       .  S
Zn1204     O1209   2.002       .  S
Zn1204     O1212   2.021       .  S
Zn1204     O1215   1.981       .  S
Zn1205     O1206   1.962   1_554  S
Zn1205     O1213   2.049   1_554  S
Zn1205     O1216   2.004       .  S
Zn1205     O1217   2.066   1_554  S
O1207      C1219   1.275       .  A
O1208      C1220   1.279   1_554  A
O1209      C1221   1.272       .  A
O1210      C1219   1.276   1_554  A
O1211      C1221   1.279       .  A
O1212      C1220   1.273       .  A
O1213      C1222   1.279       .  A
O1214      C1223   1.272       .  A
O1215      C1222   1.270       .  A
O1216      C1223   1.272       .  A
O1217      C1224   1.280       .  A
O1218      C1224   1.272       .  A
C1219      C1721   1.491       .  S
C1220      C1763   1.496       .  S
C1221      C1861   1.492       .  S
C1222      C1707   1.478       .  S
C1223      C1847   1.478       .  S
C1224      C1693   1.506       .  S
Zn1225     O1229   1.937       .  S
Zn1225     O1230   2.024       .  S
Zn1225     O1234   2.003       .  S
Zn1225     O1241   1.975       .  S
Zn1226     O1229   1.934       .  S
Zn1226     O1231   2.000       .  S
Zn1226     O1233   2.028       .  S
Zn1226     O1237   1.999       .  S
Zn1227     O1229   1.969       .  S
Zn1227     O1232   2.057       .  S
Zn1227     O1235   2.040       .  S
Zn1227     O1238   2.016       .  S
Zn1228     O1229   1.968       .  S
Zn1228     O1236   1.995       .  S
Zn1228     O1239   2.066       .  S
Zn1228     O1240   2.058       .  S
O1230      C1242   1.273       .  A
O1231      C1243   1.275       .  A
O1232      C1244   1.278       .  A
O1233      C1242   1.276       .  A
O1234      C1244   1.273       .  A
O1235      C1243   1.276       .  A
O1236      C1245   1.272       .  A
O1237      C1246   1.271       .  A
O1238      C1245   1.274       .  A
O1239      C1246   1.279       .  A
O1240      C1247   1.279       .  A
O1241      C1247   1.269       .  A
C1242      C1662   1.496       .  S
C1243      C1634   1.482       .  S
C1244      C1676   1.486       .  S
C1245      C1648   1.477       .  S
C1246      C1903   1.484       .  S
C1247      C1620   1.472       .  S
Zn1248     O1253   1.980       .  S
Zn1248     O1257   1.976       .  S
Zn1248     O1264   1.994       .  S
Zn1249     O1252   1.958       .  S
Zn1249     O1254   2.028       .  S
Zn1249     O1256   2.062       .  S
Zn1249     O1260   2.035       .  S
Zn1250     O1255   2.053       .  S
Zn1251     O1252   1.948       .  S
Zn1251     O1259   2.020       .  S
Zn1251     O1262   2.008       .  S
Zn1251     O1263   2.025       .  S
O1254      C1266   1.275       .  A
O1255      C1267   1.279       .  A
O1256      C1265   1.278       .  A
O1257      C1267   1.270       .  A
O1258      C1266   1.273       .  A
O1259      C1268   1.273       .  A
O1260      C1269   1.279       .  A
O1261      C1268   1.280       .  A
O1262      C1269   1.274       .  A
O1263      C1270   1.276       .  A
C1265      C1609   1.494       .  S
C1266      C1581   1.487       .  S
C1267      C1637   1.473       .  S
C1268      C1830   1.497       .  S
C1269      C1623   1.482       .  S
C1270      C1592   1.478       .  S
Zn1271     O1275   1.930       .  S
Zn1271     O1276   1.981       .  S
Zn1271     O1280   1.985       .  S
Zn1271     O1287   2.019       .  S
Zn1272     O1275   1.958       .  S
Zn1272     O1277   2.026       .  S
Zn1272     O1279   2.044       .  S
Zn1272     O1283   2.053       .  S
Zn1273     O1281   2.020       .  S
Zn1273     O1284   2.085       .  S
Zn1274     O1282   1.952       .  S
Zn1274     O1285   1.987       .  S
Zn1274     O1286   1.990       .  S
O1276      C1288   1.271       .  A
O1277      C1289   1.274       .  A
O1278      C1290   1.278       .  A
O1279      C1288   1.278       .  A
O1280      C1290   1.271       .  A
O1282      C1291   1.267       .  A
O1283      C1292   1.279       .  A
O1284      C1291   1.283       .  A
O1287      C1293   1.273       .  A
C1288      C1539   1.488       .  S
C1289      C1564   1.474       .  S
C1290      C2026   1.495       .  S
C1291      C1522   1.478       .  S
C1292      C1606   1.492       .  S
C1293      C1553   1.473       .  S
Zn1294     O1298   1.916       .  S
Zn1294     O1299   1.939       .  S
Zn1294     O1303   2.010       .  S
Zn1294     O1310   1.989       .  S
Zn1295     O1298   1.973       .  S
Zn1295     O1300   2.091       .  S
Zn1295     O1302   2.091       .  S
Zn1295     O1306   2.019       .  S
Zn1296     O1298   1.909       .  S
Zn1296     O1301   1.996       .  S
Zn1296     O1304   1.974       .  S
Zn1296     O1307   1.973       .  S
Zn1297     O1298   1.949       .  S
Zn1297     O1305   2.062       .  S
Zn1297     O1308   2.025       .  S
Zn1297     O1309   2.071       .  S
O1299      C1311   1.267       .  A
O1300      C1312   1.282       .  A
O1301      C1313   1.271       .  A
O1302      C1311   1.284       .  A
O1303      C1313   1.270       .  A
O1304      C1312   1.269       .  A
O1305      C1314   1.279       .  A
O1306      C1315   1.275       .  A
O1307      C1314   1.270       .  A
O1308      C1315   1.276       .  A
O1309      C1316   1.280       .  A
O1310      C1316   1.271       .  A
C1311      C1536   1.483       .  S
C1312      C1942   1.493       .  S
C1313      C1508   1.476       .  S
C1314      C1525   1.491       .  S
C1315      C1494   1.469       .  S
C1316      C1679   1.484       .  S
Zn1317     O1321   1.944       .  S
Zn1317     O1322   1.991       .  S
Zn1317     O1326   1.978       .  S
Zn1317     O1333   2.036       .  S
Zn1318     O1321   1.961   1_556  S
Zn1318     O1323   2.019       .  S
Zn1318     O1325   2.030       .  S
Zn1318     O1329   2.056       .  S
Zn1319     O1327   1.990   1_655  S
Zn1319     O1330   2.051       .  S
Zn1320     O1328   1.961       .  S
Zn1320     O1331   1.989       .  S
Zn1320     O1332   2.008       .  S
O1322      C1334   1.272       .  A
O1323      C1335   1.275       .  A
O1324      C1336   1.280   1_556  A
O1325      C1334   1.277   1_556  A
O1326      C1336   1.270       .  A
O1328      C1337   1.268       .  A
O1329      C1338   1.277   1_556  A
O1330      C1337   1.278   1_556  A
O1333      C1339   1.274       .  A
C1334      C1466   1.474       .  S
C1335      C1595   1.483       .  S
C1336      C1732   1.489       .  S
C1337      C1452   1.467       .  S
C1338      C1483   1.489   1_554  S
C1339      C1578   1.490       .  S
Zn1340     O1344   1.963   1_556  S
Zn1340     O1345   2.079       .  S
Zn1340     O1349   2.094       .  S
Zn1340     O1356   2.024       .  S
Zn1341     O1344   1.918       .  S
Zn1341     O1346   1.984       .  S
Zn1341     O1348   1.960       .  S
Zn1341     O1352   1.970       .  S
Zn1342     O1344   1.935       .  S
Zn1342     O1347   1.995       .  S
Zn1342     O1350   2.011       .  S
Zn1342     O1353   1.964       .  S
Zn1343     O1344   1.959   1_556  S
Zn1343     O1351   2.069       .  S
Zn1343     O1354   2.070       .  S
Zn1343     O1355   2.045       .  S
O1345      C1357   1.283       .  A
O1346      C1358   1.270       .  A
O1347      C1359   1.270   1_554  A
O1348      C1357   1.267   1_554  A
O1349      C1359   1.284       .  A
O1350      C1358   1.271       .  A
O1351      C1360   1.282   1_556  A
O1352      C1361   1.266   1_554  A
O1353      C1360   1.269       .  A
O1354      C1361   1.280       .  A
O1355      C1362   1.279       .  A
O1356      C1362   1.275       .  A
C1357      C1469   1.480       .  S
C1358      C1651   1.478       .  S
C1359      C1690   1.506       .  S
C1360      C1455   1.486       .  S
C1361      C1438   1.493       .  S
C1362      C1665   1.496       .  S
Zn1363     O1367   1.925       .  S
Zn1363     O1368   1.945       .  S
Zn1363     O1372   1.985       .  S
Zn1363     O1379   1.986       .  S
Zn1364     O1367   1.959   1_554  S
Zn1364     O1369   2.044       .  S
Zn1364     O1371   2.049       .  S
Zn1364     O1375   1.988       .  S
Zn1365     O1367   1.941       .  S
Zn1365     O1370   2.023       .  S
Zn1365     O1373   1.998       .  S
Zn1365     O1376   1.975       .  S
Zn1366     O1367   1.963   1_554  S
Zn1366     O1374   2.042       .  S
Zn1366     O1377   2.048       .  S
Zn1366     O1378   2.052       .  S
O1368      C1380   1.266       .  A
O1369      C1381   1.277   1_554  A
O1370      C1382   1.273       .  A
O1371      C1380   1.277   1_554  A
O1372      C1382   1.268       .  A
O1373      C1381   1.271       .  A
O1374      C1383   1.279   1_554  A
O1375      C1384   1.271       .  A
O1376      C1383   1.271       .  A
O1377      C1384   1.276       .  A
O1378      C1385   1.280   1_554  A
O1379      C1385   1.268       .  A
C1380      C1410   1.469       .  S
C1381      C1805   1.494       .  S
C1382      C1511   1.471       .  S
C1383      C1424   1.482       .  S
C1384      C1497   1.491       .  S
C1385      C1441   1.492       .  S
Zn1386     O1390   1.933       .  S
Zn1386     O1391   2.015       .  S
Zn1386     O1395   1.987       .  S
Zn1386     O1402   1.983       .  S
Zn1387     O1392   1.990       .  S
Zn1387     O1394   2.007       .  S
Zn1387     O1398   1.947       .  S
Zn1388     O1390   1.965   1_556  S
Zn1388     O1393   2.021       .  S
Zn1388     O1396   2.067       .  S
Zn1388     O1399   2.032       .  S
Zn1389     O1400   2.066       .  S
O1391      C1403   1.273       .  A
O1393      C1405   1.275   1_556  A
O1395      C1405   1.272       .  A
O1396      C1404   1.279       .  A
O1397      C1406   1.274       .  A
O1398      C1407   1.267   1_554  A
O1399      C1406   1.275       .  A
O1400      C1407   1.281       .  A
O1401      C1408   1.281   1_556  A
O1402      C1408   1.270       .  A
C1403      C1550   1.476       .  S
C1404      C1480   1.477       .  S
C1405      C1413   1.484       .  S
C1406      C1567   1.475       .  S
C1407      C1427   1.487       .  S
C1408      C1749   1.500       .  S
C1409      C1410   1.403       .  A
C1409      C1414   1.395       .  A
C1409      H1416   1.083       .  S
C1410      C1411   1.405   1_556  A
C1411      C1412   1.400       .  A
C1411      N1418   1.429       .  S
C1412      C1413   1.411       .  A
C1412      H1417   1.081       .  S
C1413      C1414   1.414   1_554  A
C1414      N1415   1.429       .  S
N1415      O1419   1.262       .  A
N1415      O1420   1.262       .  A
N1418      O1422   1.262       .  A
N1418      O1421   1.262       .  A
C1423      C1424   1.411       .  A
C1423      C1428   1.401       .  A
C1423      H1430   1.081       .  S
C1424      C1425   1.406   1_556  A
C1425      C1426   1.396       .  A
C1425      N1432   1.429       .  S
C1426      C1427   1.413   1_554  A
C1426      H1431   1.081       .  S
C1427      C1428   1.409       .  A
C1428      N1429   1.429       .  S
N1429      O1433   1.262       .  A
N1429      O1434   1.262       .  A
N1432      O1436   1.262       .  A
N1432      O1435   1.262       .  A
C1437      C1438   1.404       .  A
C1437      C1442   1.403       .  A
C1437      H1444   1.081       .  S
C1438      C1439   1.421   1_556  A
C1439      C1440   1.399       .  A
C1439      N1446   1.429       .  S
C1440      C1441   1.401   1_554  A
C1440      H1445   1.081       .  S
C1441      C1442   1.420       .  A
C1442      N1443   1.429       .  S
N1443      O1447   1.262       .  A
N1443      O1448   1.262       .  A
N1446      O1450   1.262       .  A
N1446      O1449   1.262       .  A
C1451      C1452   1.396       .  A
C1451      C1456   1.394       .  A
C1451      H1458   1.082       .  S
C1452      C1453   1.409   1_554  A
C1453      C1454   1.405       .  A
C1453      N1460   1.429       .  S
C1454      C1455   1.407   1_556  A
C1454      H1459   1.081       .  S
C1455      C1456   1.419       .  A
C1456      N1457   1.430       .  S
N1457      O1461   1.262       .  A
N1457      O1462   1.262       .  A
N1460      O1464   1.262       .  A
N1460      O1463   1.262       .  A
C1465      C1466   1.396   1_556  A
C1465      C1470   1.398       .  A
C1465      H1472   1.083       .  S
C1466      C1467   1.415       .  A
C1467      C1468   1.403       .  A
C1467      N1474   1.431       .  S
C1468      C1469   1.401   1_554  A
C1468      H1473   1.083       .  S
C1469      C1470   1.419       .  A
C1470      N1471   1.429       .  S
N1471      O1475   1.262       .  A
N1471      O1476   1.262   1_556  A
N1474      O1478   1.262       .  A
N1474      O1477   1.262   1_554  A
C1479      C1484   1.402       .  A
C1479      H1486   1.081       .  S
C1480      C1481   1.407       .  A
C1481      C1482   1.403   1_556  A
C1481      N1488   1.428   1_556  S
C1482      H1487   1.081       .  S
C1483      C1484   1.411       .  A
C1484      N1485   1.428       .  S
N1485      O1489   1.262       .  A
N1485      O1490   1.262   1_556  A
N1488      O1492   1.262       .  A
N1488      O1491   1.262   1_554  A
C1493      C1494   1.401       .  A
C1493      C1498   1.402       .  A
C1493      H1500   1.082       .  S
C1494      C1495   1.403       .  A
C1495      C1496   1.398       .  A
C1495      N1502   1.429       .  S
C1496      C1497   1.412       .  A
C1496      H1501   1.082       .  S
C1497      C1498   1.415       .  A
C1498      N1499   1.428       .  S
N1499      O1503   1.262       .  A
N1499      O1504   1.262       .  A
N1502      O1506   1.262       .  A
N1502      O1505   1.262       .  A
C1507      C1508   1.403       .  A
C1507      C1512   1.397       .  A
C1507      H1514   1.081       .  S
C1508      C1509   1.413       .  A
C1509      C1510   1.400       .  A
C1509      N1516   1.429       .  S
C1510      C1511   1.401       .  A
C1510      H1515   1.081       .  S
C1511      C1512   1.410       .  A
C1512      N1513   1.430       .  S
N1513      O1517   1.262       .  A
N1513      O1518   1.262       .  A
N1516      O1520   1.262       .  A
N1516      O1519   1.262       .  A
C1521      C1522   1.409       .  A
C1521      C1526   1.402       .  A
C1521      H1528   1.077       .  S
C1522      C1523   1.403       .  A
C1523      C1524   1.400       .  A
C1523      N1530   1.428       .  S
C1524      C1525   1.414       .  A
C1524      H1529   1.079       .  S
C1525      C1526   1.411       .  A
C1526      N1527   1.429       .  S
N1527      O1531   1.262       .  A
N1527      O1532   1.262       .  A
N1530      O1534   1.262       .  A
N1530      O1533   1.262       .  A
C1535      C1536   1.411       .  A
C1535      C1540   1.398       .  A
C1535      H1542   1.082       .  S
C1536      C1537   1.404       .  A
C1537      C1538   1.402       .  A
C1537      N1544   1.428       .  S
C1538      C1539   1.414       .  A
C1538      H1543   1.081       .  S
C1539      C1540   1.410       .  A
C1540      N1541   1.430       .  S
N1541      O1545   1.262       .  A
N1541      O1546   1.262       .  A
N1544      O1548   1.262       .  A
N1544      O1547   1.262       .  A
C1549      C1550   1.401       .  A
C1549      C1554   1.398       .  A
C1549      H1556   1.082       .  S
C1551      C1552   1.400       .  A
C1551      N1558   1.429       .  S
C1552      C1553   1.400       .  A
C1552      H1557   1.082       .  S
C1554      N1555   1.429       .  S
N1555      O1559   1.262       .  A
N1555      O1560   1.262       .  A
N1558      O1562   1.262       .  A
N1558      O1561   1.262       .  A
C1563      C1568   1.403       .  A
C1563      H1570   1.081       .  S
C1564      C1565   1.409       .  A
C1565      C1566   1.399       .  A
C1565      N1572   1.429       .  S
C1566      H1571   1.081       .  S
C1567      C1568   1.410       .  A
C1568      N1569   1.429       .  S
N1569      O1573   1.262       .  A
N1569      O1574   1.262       .  A
N1572      O1576   1.262       .  A
N1572      O1575   1.262       .  A
C1577      C1582   1.401       .  A
C1577      H1584   1.081       .  S
C1578      C1579   1.414       .  A
C1579      C1580   1.402       .  A
C1579      N1586   1.429       .  S
C1580      H1585   1.082       .  S
C1581      C1582   1.411       .  A
C1582      N1583   1.429       .  S
N1583      O1587   1.262       .  A
N1583      O1588   1.262       .  A
N1586      O1590   1.262       .  A
N1586      O1589   1.262       .  A
C1591      C1592   1.402       .  A
C1591      C1596   1.399       .  A
C1591      H1598   1.081       .  S
C1593      C1594   1.398       .  A
C1593      N1600   1.429       .  S
C1594      C1595   1.405       .  A
C1594      H1599   1.081       .  S
C1596      N1597   1.429       .  S
N1597      O1601   1.262       .  A
N1597      O1602   1.262   1_655  A
N1600      O1604   1.262       .  A
N1600      O1603   1.262       .  A
C1605      C1610   1.402       .  A
C1605      H1612   1.082       .  S
C1606      C1607   1.411       .  A
C1607      C1608   1.400       .  A
C1607      N1614   1.429       .  S
C1608      H1613   1.082       .  S
C1609      C1610   1.411       .  A
C1610      N1611   1.429       .  S
N1611      O1615   1.262       .  A
N1611      O1616   1.262       .  A
N1614      O1618   1.262       .  A
N1614      O1617   1.262       .  A
C1619      C1620   1.402       .  A
C1619      C1624   1.399       .  A
C1619      H1626   1.082       .  S
C1620      C1621   1.407       .  A
C1621      C1622   1.403       .  A
C1621      N1628   1.428       .  S
C1622      C1623   1.407       .  A
C1622      H1627   1.082       .  S
C1623      C1624   1.412       .  A
C1624      N1625   1.429       .  S
N1625      O1629   1.262       .  A
N1625      O1630   1.262       .  A
N1628      O1632   1.262       .  A
N1628      O1631   1.262       .  A
C1633      C1634   1.403       .  A
C1633      C1638   1.395       .  A
C1633      H1640   1.082       .  S
C1634      C1635   1.415       .  A
C1635      C1636   1.406       .  A
C1635      N1642   1.429       .  S
C1636      C1637   1.403       .  A
C1636      H1641   1.081       .  S
C1637      C1638   1.409       .  A
C1638      N1639   1.429       .  S
N1639      O1643   1.262       .  A
N1639      O1644   1.262       .  A
N1642      O1646   1.262       .  A
N1642      O1645   1.262       .  A
C1647      C1648   1.406       .  A
C1647      C1652   1.399       .  A
C1647      H1654   1.082       .  S
C1648      C1649   1.409       .  A
C1649      C1650   1.395       .  A
C1649      N1656   1.429       .  S
C1650      C1651   1.406       .  A
C1650      H1655   1.082       .  S
C1651      C1652   1.412       .  A
C1652      N1653   1.430       .  S
N1653      O1657   1.262       .  A
N1653      O1658   1.262       .  A
N1656      O1660   1.262       .  A
N1656      O1659   1.262       .  A
C1661      C1662   1.406       .  A
C1661      C1666   1.402       .  A
C1661      H1668   1.081       .  S
C1662      C1663   1.418       .  A
C1663      C1664   1.405       .  A
C1663      N1670   1.429       .  S
C1664      C1665   1.406       .  A
C1664      H1669   1.081       .  S
C1665      C1666   1.417       .  A
C1666      N1667   1.429       .  S
N1667      O1671   1.262       .  A
N1667      O1672   1.262       .  A
N1670      O1674   1.262       .  A
N1670      O1673   1.262       .  A
C1675      C1676   1.409       .  A
C1675      C1680   1.403       .  A
C1675      H1682   1.081       .  S
C1676      C1677   1.410       .  A
C1677      C1678   1.404       .  A
C1677      N1684   1.429       .  S
C1678      C1679   1.409       .  A
C1678      H1683   1.081       .  S
C1679      C1680   1.408       .  A
C1680      N1681   1.428       .  S
N1681      O1685   1.262       .  A
N1681      O1686   1.262       .  A
N1684      O1688   1.262       .  A
N1684      O1687   1.262       .  A
C1689      C1690   1.405       .  A
C1689      C1694   1.409       .  A
C1689      H1696   1.081       .  S
C1690      C1691   1.423   1_556  A
C1691      C1692   1.406       .  A
C1691      N1698   1.430       .  S
C1692      C1693   1.405   1_554  A
C1692      H1697   1.082       .  S
C1693      C1694   1.422       .  A
C1694      N1695   1.429       .  S
N1695      O1699   1.262       .  A
N1695      O1700   1.262       .  A
N1698      O1702   1.262       .  A
N1698      O1701   1.262       .  A
C1703      C1708   1.397       .  A
C1704      C1705   1.418       .  A
C1705      N1712   1.429       .  S
C1706      C1707   1.401   1_554  A
C1706      H1711   1.080       .  S
C1707      C1708   1.411       .  A
C1708      N1709   1.428       .  S
N1709      O1713   1.262       .  A
N1709      O1714   1.262       .  A
N1712      O1716   1.262       .  A
N1712      O1715   1.262       .  A
C1717      C1718   1.402   1_554  A
C1717      C1722   1.398       .  A
C1717      H1724   1.081       .  S
C1718      C1719   1.408       .  A
C1719      C1720   1.403       .  A
C1719      N1726   1.428       .  S
C1720      C1721   1.410       .  A
C1720      H1725   1.080       .  S
C1721      C1722   1.416   1_556  A
C1722      N1723   1.428       .  S
N1723      O1727   1.262       .  A
N1723      O1728   1.262       .  A
N1726      O1730   1.261       .  A
N1726      O1729   1.262       .  A
C1731      C1732   1.406       .  A
C1731      C1736   1.399       .  A
C1731      H1738   1.082       .  S
C1732      C1733   1.413   1_554  A
C1733      C1734   1.408       .  A
C1733      N1740   1.428       .  S
C1734      C1735   1.407   1_556  A
C1734      H1739   1.081       .  S
C1735      C1736   1.411       .  A
C1736      N1737   1.429       .  S
N1737      O1741   1.262       .  A
N1737      O1742   1.262       .  A
N1740      O1744   1.262       .  A
N1740      O1743   1.262       .  A
C1745      C1746   1.413   1_556  A
C1745      C1750   1.406       .  A
C1745      H1752   1.075       .  S
C1746      C1747   1.410       .  A
C1747      C1748   1.404       .  A
C1747      N1754   1.429       .  S
C1748      C1749   1.414       .  A
C1748      H1753   1.079       .  S
C1749      C1750   1.411   1_554  A
C1750      N1751   1.429       .  S
N1754      O1758   1.262       .  A
N1754      O1757   1.262       .  A
C1759      C1760   1.400   1_556  A
C1759      C1764   1.405   1_565  A
C1759      H1766   1.083       .  S
C1760      C1761   1.413       .  A
C1761      C1762   1.404   1_565  A
C1761      N1768   1.429       .  S
C1762      C1763   1.406   1_554  A
C1762      H1767   1.082       .  S
C1763      C1764   1.420       .  A
C1764      N1765   1.429       .  S
N1765      O1769   1.262       .  A
N1765      O1770   1.262       .  A
N1768      O1772   1.262       .  A
N1768      O1771   1.262       .  A
C1773      C1774   1.409   1_556  A
C1773      C1778   1.401       .  A
C1773      H1780   1.080       .  S
C1774      C1775   1.418       .  A
C1775      C1776   1.401       .  A
C1775      N1782   1.429       .  S
C1776      C1777   1.398       .  A
C1776      H1781   1.072       .  S
C1777      C1778   1.404   1_554  A
C1778      N1779   1.430       .  S
N1779      O1783   1.262       .  A
N1779      O1784   1.261       .  A
N1782      O1786   1.262       .  A
N1782      O1785   1.262       .  A
C1787      C1788   1.404       .  A
C1787      H1794   1.082       .  S
C1789      C1790   1.401       .  A
C1790      C1791   1.401   1_556  A
C1790      H1795   1.083       .  S
C1791      C1792   1.416       .  A
C1792      N1793   1.429       .  S
N1793      O1797   1.262       .  A
N1793      O1798   1.262       .  A
N1796      O1800   1.261       .  A
N1796      O1799   1.262       .  A
C1801      C1802   1.414       .  A
C1801      C1806   1.404       .  A
C1801      H1808   1.083       .  S
C1802      C1803   1.411   1_554  A
C1803      C1804   1.404       .  A
C1803      N1810   1.428       .  S
C1804      C1805   1.411       .  A
C1804      H1809   1.083       .  S
C1805      C1806   1.410   1_556  A
C1806      N1807   1.430       .  S
N1807      O1811   1.262       .  A
N1807      O1812   1.262       .  A
N1810      O1814   1.262       .  A
N1810      O1813   1.262       .  A
C1815      C1816   1.411       .  A
C1815      C1820   1.401   1_565  A
C1815      H1822   1.081       .  S
C1816      C1817   1.410   1_554  A
C1817      C1818   1.403   1_565  A
C1817      N1824   1.428       .  S
C1818      C1819   1.407   1_556  A
C1818      H1823   1.081       .  S
C1819      C1820   1.406       .  A
C1820      N1821   1.429       .  S
N1821      O1825   1.262   1_554  A
N1821      O1826   1.262       .  A
N1824      O1828   1.262   1_556  A
N1824      O1827   1.262       .  A
C1829      C1830   1.406       .  A
C1829      C1834   1.407       .  A
C1829      H1836   1.083       .  S
C1830      C1831   1.417       .  A
C1831      C1832   1.406       .  A
C1831      N1838   1.429       .  S
C1832      C1833   1.405       .  A
C1832      H1837   1.083       .  S
C1833      C1834   1.415       .  A
C1834      N1835   1.429       .  S
N1835      O1839   1.262       .  A
N1835      O1840   1.262       .  A
N1838      O1842   1.262       .  A
N1838      O1841   1.262       .  A
C1843      C1844   1.407       .  A
C1843      C1848   1.395       .  A
C1843      H1850   1.081       .  S
C1844      C1845   1.413       .  A
C1845      C1846   1.400       .  A
C1845      N1852   1.429       .  S
C1846      C1847   1.406       .  A
C1846      H1851   1.081       .  S
C1847      C1848   1.410       .  A
C1848      N1849   1.429       .  S
N1849      O1853   1.262       .  A
N1849      O1854   1.262       .  A
N1852      O1856   1.262       .  A
N1852      O1855   1.262       .  A
C1857      C1858   1.403       .  A
C1857      C1862   1.401       .  A
C1857      H1864   1.082       .  S
C1858      C1859   1.417       .  A
C1859      C1860   1.400       .  A
C1859      N1866   1.428       .  S
C1860      C1861   1.404       .  A
C1860      H1865   1.081       .  S
C1861      C1862   1.418       .  A
C1862      N1863   1.428       .  S
N1863      O1867   1.262       .  A
N1863      O1868   1.261       .  A
N1866      O1870   1.262       .  A
N1866      O1869   1.261       .  A
C1871      C1872   1.402       .  A
C1871      C1876   1.403       .  A
C1871      H1878   1.078       .  S
C1872      C1873   1.411       .  A
C1873      C1874   1.401       .  A
C1873      N1880   1.429       .  S
C1874      C1875   1.406       .  A
C1874      H1879   1.082       .  S
C1875      C1876   1.416       .  A
C1876      N1877   1.431       .  S
N1877      O1881   1.262       .  A
N1877      O1882   1.262       .  A
N1880      O1884   1.262       .  A
N1880      O1883   1.262       .  A
C1885      C1886   1.402       .  A
C1885      H1892   1.082       .  S
C1886      C1887   1.411       .  A
C1887      C1888   1.400       .  A
C1887      N1894   1.429       .  S
C1889      C1890   1.419   1_655  A
C1890      N1891   1.429   1_455  S
N1891      O1895   1.262       .  A
N1891      O1896   1.262       .  A
N1894      O1898   1.262       .  A
N1894      O1897   1.262       .  A
C1899      C1900   1.411       .  A
C1899      C1904   1.411       .  A
C1899      H1906   1.083       .  S
C1900      C1901   1.419       .  A
C1901      C1902   1.403       .  A
C1901      N1908   1.429       .  S
C1902      C1903   1.400       .  A
C1902      H1907   1.083       .  S
C1903      C1904   1.411       .  A
C1904      N1905   1.429       .  S
N1905      O1909   1.262       .  A
N1905      O1910   1.262       .  A
N1908      O1912   1.262       .  A
N1908      O1911   1.262       .  A
C1913      C1914   1.408       .  A
C1913      C1918   1.401       .  A
C1913      H1920   1.081       .  S
C1914      C1915   1.417       .  A
C1915      C1916   1.398       .  A
C1915      N1922   1.429       .  S
C1916      C1917   1.402       .  A
C1916      H1921   1.081       .  S
C1917      C1918   1.411       .  A
C1918      N1919   1.429       .  S
N1919      O1923   1.262       .  A
N1919      O1924   1.262       .  A
N1922      O1926   1.262       .  A
N1922      O1925   1.262       .  A
C1927      C1928   1.411       .  A
C1927      C1932   1.399       .  A
C1927      H1934   1.081       .  S
C1928      C1929   1.411       .  A
C1929      C1930   1.399       .  A
C1929      N1936   1.429       .  S
C1930      C1931   1.408       .  A
C1930      H1935   1.079       .  S
C1931      C1932   1.409       .  A
C1932      N1933   1.429       .  S
N1933      O1937   1.262       .  A
N1933      O1938   1.262       .  A
N1936      O1940   1.262       .  A
N1936      O1939   1.262       .  A
C1941      C1942   1.408       .  A
C1941      C1946   1.399       .  A
C1941      H1948   1.082       .  S
C1942      C1943   1.413       .  A
C1943      C1944   1.411       .  A
C1943      N1950   1.428       .  S
C1944      C1945   1.407       .  A
C1944      H1949   1.081       .  S
C1945      C1946   1.409       .  A
C1946      N1947   1.429       .  S
N1947      O1951   1.262       .  A
N1947      O1952   1.262       .  A
N1950      O1954   1.262       .  A
N1950      O1953   1.262       .  A
C1955      C1956   1.393       .  A
C1955      C1960   1.396       .  A
C1955      H1962   1.082       .  S
C1956      C1957   1.411       .  A
C1957      C1958   1.404       .  A
C1957      N1964   1.427       .  S
C1958      C1959   1.402       .  A
C1958      H1963   1.081       .  S
C1959      C1960   1.412       .  A
C1960      N1961   1.421       .  S
N1961      O1965   1.261       .  A
N1961      O1966   1.261       .  A
N1964      O1968   1.262       .  A
N1964      O1967   1.261       .  A
C1969      C1970   1.404       .  A
C1969      C1974   1.399       .  A
C1969      H1976   1.081       .  S
C1970      C1971   1.407       .  A
C1971      C1972   1.395       .  A
C1971      N1978   1.429       .  S
C1972      C1973   1.405       .  A
C1972      H1977   1.081       .  S
C1973      C1974   1.410       .  A
C1974      N1975   1.429       .  S
N1975      O1979   1.262       .  A
N1975      O1980   1.262       .  A
N1978      O1982   1.262       .  A
N1978      O1981   1.262       .  A
C1983      C1984   1.404       .  A
C1983      C1988   1.404   1_565  A
C1983      H1990   1.081       .  S
C1984      C1985   1.420       .  A
C1985      C1986   1.404   1_565  A
C1985      N1992   1.429       .  S
C1986      C1987   1.405       .  A
C1986      H1991   1.081       .  S
C1987      C1988   1.420       .  A
C1988      N1989   1.429       .  S
N1989      O1993   1.262       .  A
N1989      O1994   1.262       .  A
N1992      O1996   1.262       .  A
N1992      O1995   1.262       .  A
C1997      C2002   1.399       .  A
C1998      C1999   1.417       .  A
C1999      N2006   1.429       .  S
C2000      C2001   1.403       .  A
C2000      H2005   1.081       .  S
C2001      C2002   1.406       .  A
C2002      N2003   1.420       .  S
N2003      O2007   1.260       .  A
N2003      O2008   1.261       .  A
N2006      O2010   1.262       .  A
N2006      O2009   1.262       .  A
C2011      C2012   1.395       .  A
C2011      C2016   1.399       .  A
C2011      H2018   1.082       .  S
C2012      C2013   1.412       .  A
C2013      C2014   1.400       .  A
C2013      N2020   1.430       .  S
C2014      C2015   1.402       .  A
C2014      H2019   1.081       .  S
C2015      C2016   1.421       .  A
C2016      N2017   1.429       .  S
N2017      O2021   1.262       .  A
N2017      O2022   1.261       .  A
N2020      O2024   1.262       .  A
N2020      O2023   1.262       .  A
C2025      C2026   1.412       .  A
C2025      C2030   1.401       .  A
C2025      H2032   1.082       .  S
C2026      C2027   1.412       .  A
C2027      C2028   1.403       .  A
C2027      N2034   1.429       .  S
C2028      C2029   1.412       .  A
C2028      H2033   1.083       .  S
C2029      C2030   1.410       .  A
C2030      N2031   1.428       .  S
N2031      O2035   1.262       .  A
N2031      O2036   1.261       .  A
N2034      O2037   1.262       .  A
C2039      C2040   1.405       .  A
C2039      C2044   1.395       .  A
C2039      H2046   1.082       .  S
C2040      C2041   1.412       .  A
C2041      C2042   1.399       .  A
C2041      N2048   1.429       .  S
C2042      C2043   1.404       .  A
C2042      H2047   1.082       .  S
C2043      C2044   1.410       .  A
C2044      N2045   1.429       .  S
N2045      O2049   1.262       .  A
N2045      O2050   1.262       .  A
N2048      O2052   1.262       .  A
N2048      O2051   1.262       .  A
C2053      C2054   1.406       .  A
C2053      C2058   1.402       .  A
C2053      H2060   1.081       .  S
C2054      C2055   1.416       .  A
C2055      C2056   1.398       .  A
C2055      N2062   1.429       .  S
C2056      C2057   1.401       .  A
C2056      H2061   1.081       .  S
C2057      C2058   1.414       .  A
C2058      N2059   1.430       .  S
N2059      O2063   1.262       .  A
N2059      O2064   1.262       .  A
N2062      O2066   1.262       .  A
N2062      O2065   1.262       .  A
C2067      C2068   1.398       .  A
C2067      C2072   1.401   1_565  A
C2067      H2074   1.081       .  S
C2068      C2069   1.410       .  A
C2069      C2070   1.405   1_565  A
C2069      N2076   1.429       .  S
C2070      C2071   1.407       .  A
C2070      H2075   1.080       .  S
C2071      C2072   1.419       .  A
C2072      N2073   1.429       .  S
N2073      O2077   1.262       .  A
N2073      O2078   1.262       .  A
N2076      O2080   1.261       .  A
N2076      O2079   1.261       .  A
