geometry optimzed in LAMMPS
_audit_creation_date              2020-12-01 
_audit_creation_method            'lammps2cif' 
_symmetry_space_group_name_H-M    'P1' 
_symmetry_Int_Tables_number       1 
_symmetry_cell_setting            triclinic 
loop_ 
_symmetry_equiv_pos_as_xyz 
  x,y,z 
_cell_length_a                    31.20637665 
_cell_length_b                    27.42589420867667 
_cell_length_c                    65.65610525106943 
_cell_angle_alpha                 90.14148979633893 
_cell_angle_beta                  90.25956526681857 
_cell_angle_gamma                 89.98093266949515 
loop_ 
_atom_site_label 
_atom_site_type_symbol 
_atom_site_fract_x 
_atom_site_fract_y 
_atom_site_fract_z 
_atom_site_charge 
O1          O  0.89062566  0.17074518  0.47728743    -0.82300
C2          C  0.03767419  0.16454658  0.42781080     0.97100
O3          O  0.00606931  0.13584457  0.42584199    -0.71400
O4          O  0.99572317  0.10159014  0.46248741    -0.75000
Al5        Al  0.95719363  0.12837160  0.44360190     1.49000
C6          C  0.98773648  0.09968019  0.48124429     0.92300
O7          O  0.00127259  0.22252940  0.48760275    -0.81200
O8          O  0.92798710  0.27074449  0.44349136    -0.74800
Al9        Al  0.94681706  0.19650126  0.48071088     1.90100
O10         O  0.00688849  0.27175536  0.46165912    -0.73800
O11         O  0.95450363  0.21440217  0.41441747    -0.73700
O12         O  0.03225044  0.20654431  0.43512832    -0.79300
O13         O  0.91793754  0.14966705  0.42345212    -0.77600
O14         O  0.96080476  0.18720831  0.45477793    -1.13700
O15         O  0.90887910  0.10653060  0.45961641    -0.72900
C16         C  0.88406295  0.12683847  0.47227184     0.97800
C17         C  0.01725795  0.26007543  0.47962056     0.94200
Al18       Al  0.97902451  0.23676122  0.43981171     1.55600
O19         O  0.96756103  0.13406481  0.48983099    -0.77500
C20         C  0.92531144  0.18343649  0.41093193     0.98400
C21         C  0.91438051  0.28500174  0.46050807     0.93300
O22         O  0.92286539  0.26110177  0.47655751    -0.82800
O23         O  0.85825776  0.17608310  0.27165066    -0.82300
C24         C  0.70943828  0.17485618  0.31939491     0.97100
O25         O  0.74010295  0.14501277  0.32159857    -0.71400
O26         O  0.75118518  0.10970526  0.28511672    -0.75000
Al27       Al  0.78941934  0.13573505  0.30432057     1.49000
C28         C  0.76077516  0.10630509  0.26656612     0.92300
O29         O  0.74878357  0.22828474  0.25944461    -0.81200
O30         O  0.82200266  0.27741796  0.30373139    -0.74800
Al31       Al  0.80264246  0.20182751  0.26704769     1.90100
O32         O  0.74331619  0.27882268  0.28514968    -0.73800
O33         O  0.79455076  0.22271116  0.33339054    -0.73700
O34         O  0.71655788  0.21650145  0.31223268    -0.79300
O35         O  0.82840748  0.15623337  0.32446291    -0.77600
O36         O  0.78756716  0.19417220  0.29293137    -1.13700
O37         O  0.83802889  0.11246963  0.28911679    -0.72900
C38         C  0.86422947  0.13248707  0.27708792     0.97800
C39         C  0.73348182  0.26680168  0.26707730     0.94200
Al40       Al  0.77035178  0.24479701  0.30756669     1.55600
O41         O  0.78238182  0.13937961  0.25805209    -0.77500
C42         C  0.82285545  0.19056032  0.33694095     0.98400
C43         C  0.83586075  0.28947951  0.28650927     0.93300
O44         O  0.82640579  0.26565195  0.27063500    -0.82800
O45         O  0.57776976  0.74867471  0.02220257    -0.82300
C46         C  0.46087639  0.84415898  0.07085187     0.97100
O47         O  0.46496811  0.80332153  0.06227872    -0.71400
O48         O  0.49111045  0.74067741  0.03485258    -0.75000
Al49       Al  0.51755436  0.77095271  0.05800065     1.49000
C50         C  0.48399860  0.75401023  0.01674403     0.92300
O51         O  0.53856504  0.87744699  0.01044606    -0.81200
O52         O  0.59310716  0.90017723  0.04259553    -0.74800
Al53       Al  0.55657843  0.81403940  0.01880818     1.90100
O54         O  0.50764552  0.90809531  0.03761502    -0.73800
O55         O  0.58024621  0.85296129  0.07700118    -0.73700
O56         O  0.49325553  0.87115212  0.07362851    -0.79300
O57         O  0.54015794  0.78956237  0.08438298    -0.77600
O58         O  0.53927161  0.82097185  0.04446264    -1.13700
O59         O  0.56742140  0.73405058  0.05469024    -0.72900
C60         C  0.58263874  0.72180573  0.03768524     0.97800
C61         C  0.51717974  0.91077023  0.01900218     0.94200
Al62       Al  0.54343106  0.87823531  0.05686487     1.55600
O63         O  0.50253857  0.79090076  0.00957504    -0.77500
C64         C  0.57042507  0.81852245  0.08872931     0.98400
C65         C  0.61890078  0.88083894  0.03025366     0.93300
O66         O  0.61291107  0.83731983  0.02455305    -0.82800
O67         O  0.66717991  0.75563728  0.22808137    -0.82300
C68         C  0.78426589  0.84601381  0.17897741     0.97100
O69         O  0.77749257  0.80484354  0.18676834    -0.71400
O70         O  0.74988146  0.74225772  0.21366832    -0.75000
Al71       Al  0.72363305  0.77618083  0.19128395     1.49000
C72         C  0.76090444  0.75595461  0.23130687     0.92300
O73         O  0.71217099  0.88352803  0.23996229    -0.81200
O74         O  0.65451592  0.90852243  0.20896809    -0.74800
Al75       Al  0.69156369  0.82037815  0.23149377     1.90100
O76         O  0.74149581  0.91332334  0.21240846    -0.73800
O77         O  0.66412425  0.86220609  0.17391698    -0.73700
O78         O  0.75320947  0.87538135  0.17639597    -0.79300
O79         O  0.70097107  0.79740175  0.16546417    -0.77600
O80         O  0.70601719  0.82731539  0.20557226    -1.13700
O81         O  0.67141576  0.74353795  0.19498870    -0.72900
C82         C  0.65691679  0.73185719  0.21217818     0.97800
C83         C  0.73292513  0.91687256  0.23106234     0.94200
Al84       Al  0.70334368  0.88511609  0.19367264     1.55600
O85         O  0.74599839  0.79482816  0.23871476    -0.77500
C86         C  0.67064381  0.82686471  0.16204742     0.98400
C87         C  0.62895660  0.88906384  0.22150817     0.93300
O88         O  0.63556091  0.84593148  0.22743960    -0.82800
O89         O  0.36228441  0.16813430  0.77285508    -0.82300
C90         C  0.21307149  0.16322414  0.82046614     0.97100
O91         O  0.24450712  0.13439694  0.82279430    -0.71400
O92         O  0.25571643  0.09877530  0.78627531    -0.75000
Al93       Al  0.29389416  0.12607868  0.80516044     1.49000
C94         C  0.26539040  0.09444744  0.76777495     0.92300
O95         O  0.25224055  0.21674305  0.75943447    -0.81200
O96         O  0.32257732  0.26865516  0.80436507    -0.74800
Al97       Al  0.30638743  0.19175642  0.76766946     1.90100
O98         O  0.24484373  0.26691804  0.78514416    -0.73800
O99         O  0.29513304  0.21285664  0.83359554    -0.73700
O100        O  0.21882755  0.20384361  0.81210359    -0.79300
O101        O  0.33311653  0.14875174  0.82486791    -0.77600
O102        O  0.29064043  0.18405557  0.79341962    -1.13700
O103        O  0.34233662  0.10356203  0.78978663    -0.72900
C104        C  0.36789468  0.12415963  0.77764836     0.97800
C105        C  0.23615836  0.25497912  0.76695797     0.94200
Al106      Al  0.27167534  0.23407409  0.80773528     1.55600
O107        O  0.28721586  0.12718290  0.75887413    -0.77500
C108        C  0.32519651  0.18293926  0.83708133     0.98400
C109        C  0.33650440  0.28219399  0.78733844     0.93300
O110        O  0.32914568  0.25719521  0.77140949    -0.82800
O111        O  0.38718458  0.16701636  0.97493580    -0.82300
C112        C  0.53819212  0.15779587  0.92814653     0.97100
O113        O  0.50597655  0.13028684  0.92552882    -0.71400
O114        O  0.49246106  0.09572649  0.96182489    -0.75000
Al115      Al  0.45580465  0.12375467  0.94259997     1.49000
C116        C  0.48374701  0.09419427  0.98051557     0.92300
O117        O  0.49785817  0.21455345  0.98796273    -0.81200
O118        O  0.43009605  0.26713622  0.94274357    -0.74800
Al119      Al  0.44366598  0.19062522  0.97977434     1.90100
O120        O  0.50685493  0.26459878  0.96240641    -0.73800
O121        O  0.45812957  0.20973256  0.91377855    -0.73700
O122        O  0.53349425  0.19932782  0.93604958    -0.79300
O123        O  0.41824452  0.14731521  0.92243261    -0.77600
O124        O  0.45990173  0.18191899  0.95415421    -1.13700
O125        O  0.40611011  0.10250396  0.95764033    -0.72900
C126        C  0.38035571  0.12339855  0.96968580     0.97800
C127        C  0.51504492  0.25193596  0.98049694     0.94200
Al128      Al  0.48062748  0.23120225  0.93980994     1.55600
O129        O  0.46232215  0.12782940  0.98886616    -0.77500
C130        C  0.42747503  0.18073768  0.91007261     0.98400
C131        C  0.41576348  0.28078734  0.95975556     0.93300
O132        O  0.42209689  0.25546239  0.97558138    -0.82800
O133        O  0.17287655  0.74279726  0.72898622    -0.82300
C134        C  0.28834509  0.83639708  0.68035653     0.97100
O135        O  0.28092367  0.79436910  0.68707631    -0.71400
O136        O  0.25513977  0.73034178  0.71358083    -0.75000
Al137      Al  0.22722877  0.76679215  0.69197368     1.49000
C138        C  0.26697256  0.74247154  0.73138193     0.92300
O139        O  0.21896129  0.86981178  0.74303738    -0.81200
O140        O  0.16342030  0.89894021  0.71320922    -0.74800
Al141      Al  0.19763047  0.80716718  0.73327953     1.90100
O142        O  0.25087381  0.89910200  0.71603888    -0.73800
O143        O  0.17006493  0.85875489  0.67706687    -0.73700
O144        O  0.25822133  0.86703127  0.67885121    -0.79300
O145        O  0.20226733  0.79182111  0.66703050    -0.77600
O146        O  0.21160111  0.81660269  0.70743346    -1.13700
O147        O  0.17532805  0.73473854  0.69577769    -0.72900
C148        C  0.16276605  0.71993729  0.71283777     0.97800
C149        C  0.24177886  0.90228006  0.73462275     0.94200
Al150      Al  0.21054395  0.87611376  0.69700292     1.55600
O151        O  0.25173477  0.78015353  0.73971939    -0.77500
C152        C  0.17514271  0.82553544  0.66405706     0.98400
C153        C  0.13708477  0.87809896  0.72492868     0.93300
O154        O  0.14223501  0.83376688  0.72946486    -0.82800
O155        O  0.07922896  0.75211322  0.52364806    -0.82300
C156        C  0.96234261  0.84547078  0.57273280     0.97100
O157        O  0.96887252  0.80378770  0.56523453    -0.71400
O158        O  0.99577660  0.73997387  0.53837659    -0.75000
Al159      Al  0.02269244  0.77429498  0.56049035     1.49000
C160        C  0.98573560  0.75213351  0.52043603     0.92300
O161        O  0.03459333  0.87864483  0.51092490    -0.81200
O162        O  0.09110762  0.90544626  0.54188332    -0.74800
Al163      Al  0.05508011  0.81629903  0.51993518     1.90100
O164        O  0.00463871  0.90995768  0.53802656    -0.73800
O165        O  0.08143665  0.86242355  0.57750468    -0.73700
O166        O  0.99330248  0.87504462  0.57461135    -0.79300
O167        O  0.04622961  0.79653194  0.58601941    -0.77600
O168        O  0.04037164  0.82459014  0.54584832    -1.13700
O169        O  0.07460227  0.74032230  0.55669053    -0.72900
C170        C  0.08901083  0.72822921  0.53948608     0.97800
C171        C  0.01354484  0.91243363  0.51936245     0.94200
Al172      Al  0.04267356  0.88326466  0.55723145     1.55600
O173        O  0.00105791  0.79031478  0.51271683    -0.77500
C174        C  0.07468961  0.82811468  0.58981199     0.98400
C175        C  0.11667485  0.88585022  0.52943539     0.93300
O176        O  0.11084814  0.84213897  0.52397891    -0.82800
O177        O  0.17109987  0.00586334  0.02194669    -0.82300
C178        C  0.28864476  0.91536893  0.07198787     0.97100
O179        O  0.28224619  0.95630527  0.06388796    -0.71400
O180        O  0.25567246  0.01864946  0.03607210    -0.75000
Al181      Al  0.22868199  0.98539903  0.05880159     1.49000
C182        C  0.26561379  0.00447454  0.01832330     0.92300
O183        O  0.21627657  0.87617008  0.01056441    -0.81200
O184        O  0.16047966  0.85180769  0.04125834    -0.74800
Al185      Al  0.19561148  0.94038604  0.01882879     1.90100
O186        O  0.24793207  0.84875733  0.03819170    -0.73800
O187        O  0.16956768  0.89797286  0.07638795    -0.73700
O188        O  0.25758409  0.88633263  0.07448712    -0.79300
O189        O  0.20443549  0.96489270  0.08454406    -0.77600
O190        O  0.21090371  0.93404035  0.04473247    -1.13700
O191        O  0.17732310  0.01849112  0.05481157    -0.72900
C192        C  0.16241539  0.03077994  0.03776448     0.97800
C193        C  0.23872493  0.84410155  0.01962640     0.94200
Al194      Al  0.20888097  0.87606733  0.05673119     1.55600
O195        O  0.24956981  0.96591360  0.01110171    -0.77500
C196        C  0.17593946  0.93328291  0.08832095     0.98400
C197        C  0.13398771  0.87179641  0.02922354     0.93300
O198        O  0.14012407  0.91513049  0.02352490    -0.82800
O199        O  0.07167196  0.01335170  0.22768947    -0.82300
C200        C  0.95841188  0.91589129  0.17751078     0.97100
O201        O  0.96332022  0.95793212  0.18492251    -0.71400
O202        O  0.98732578  0.02193601  0.21248541    -0.75000
Al203      Al  0.01600168  0.98970832  0.19020360     1.49000
C204        C  0.97774674  0.00854003  0.23033839     0.92300
O205        O  0.03066486  0.88434373  0.23924735    -0.81200
O206        O  0.08836713  0.86080698  0.20875986    -0.74800
Al207      Al  0.04959494  0.94780980  0.23082318     1.90100
O208        O  0.00172888  0.85319502  0.21171003    -0.73800
O209        O  0.07803154  0.90444716  0.17361903    -0.73700
O210        O  0.99051146  0.88819549  0.17534149    -0.79300
O211        O  0.04161122  0.96898245  0.16448849    -0.77600
O212        O  0.03527030  0.93986928  0.20477081    -1.13700
O213        O  0.06611891  0.02613498  0.19472152    -0.72900
C214        C  0.08032347  0.03833115  0.21202230     0.97800
C215        C  0.00986991  0.85068456  0.23044997     0.94200
Al216      Al  0.03952546  0.88163636  0.19316150     1.55600
O217        O  0.99472699  0.97113059  0.23795738    -0.77500
C218        C  0.07102337  0.93808027  0.16102702     0.98400
C219        C  0.11379836  0.88119930  0.22114954     0.93300
O220        O  0.10643320  0.92435877  0.22695183    -0.82800
O221        O  0.88222328  0.59399425  0.27445122    -0.82300
C222        C  0.03479867  0.60125296  0.32026802     0.97100
O223        O  0.00273541  0.62830578  0.32340569    -0.71400
O224        O  0.98965869  0.66213895  0.28673277    -0.75000
Al225      Al  0.95289913  0.63568972  0.30632827     1.49000
C226        C  0.97929674  0.66481995  0.26818897     0.92300
O227        O  0.99146940  0.54419875  0.26097279    -0.81200
O228        O  0.92486715  0.49191540  0.30609740    -0.74800
Al229      Al  0.93799175  0.56902140  0.26928884     1.90100
O230        O  0.00187437  0.49440148  0.28662118    -0.73800
O231        O  0.95144332  0.54885516  0.33534225    -0.73700
O232        O  0.02913972  0.55878455  0.31338941    -0.79300
O233        O  0.91537033  0.61433054  0.32666126    -0.77600
O234        O  0.95518147  0.57720110  0.29493840    -1.13700
O235        O  0.90380826  0.65780306  0.29153649    -0.72900
C236        C  0.87731717  0.63812362  0.27952116     0.97800
C237        C  0.00952699  0.50731888  0.26849822     0.94200
Al238      Al  0.97538567  0.52751668  0.30934545     1.55600
O239        O  0.95698197  0.63163117  0.25999443    -0.77500
C240        C  0.92220253  0.57995278  0.33893296     0.98400
C241        C  0.91013819  0.47890460  0.28905849     0.93300
O242        O  0.91581317  0.50461145  0.27334115    -0.82800
O243        O  0.86301298  0.58885746  0.47821417    -0.82300
C244        C  0.71032668  0.59993577  0.43197385     0.97100
O245        O  0.74182350  0.62846199  0.43023917    -0.71400
O246        O  0.75619465  0.65908085  0.46733208    -0.75000
Al247      Al  0.79215286  0.63385724  0.44700329     1.49000
C248        C  0.76597106  0.65961468  0.48598232     0.92300
O249        O  0.75369173  0.53695960  0.49060500    -0.81200
O250        O  0.82060286  0.48980639  0.44429054    -0.74800
Al251      Al  0.80717652  0.56325783  0.48278415     1.90100
O252        O  0.74376735  0.49001648  0.46401911    -0.73800
O253        O  0.79210466  0.54996377  0.41637626    -0.73700
O254        O  0.71614934  0.55731598  0.43860628    -0.79300
O255        O  0.82870486  0.61456862  0.42568538    -0.77600
O256        O  0.78992929  0.57419067  0.45729656    -1.13700
O257        O  0.84181427  0.65369990  0.46180149    -0.72900
C258        C  0.86868799  0.63284832  0.47322041     0.97800
C259        C  0.73634552  0.50017274  0.48247121     0.94200
Al260      Al  0.76967876  0.52583868  0.44199212     1.55600
O261        O  0.78808652  0.62533751  0.49352948    -0.77500
C262        C  0.82028927  0.58201073  0.41269605     0.98400
C263        C  0.83626546  0.47557634  0.46096821     0.93300
O264        O  0.82980310  0.49909448  0.47730060    -0.82800
O265        O  0.58941306  0.99075783  0.72899458    -0.82300
C266        C  0.46585966  0.88856089  0.68239081     0.97100
O267        O  0.47669702  0.93234072  0.67974052    -0.71400
O268        O  0.46919809  0.98351851  0.71350988    -0.75000
Al269      Al  0.51475137  0.97348172  0.69464836     1.49000
C270        C  0.47432164  0.99213482  0.73225995     0.92300
O271        O  0.51911519  0.88320137  0.74491312    -0.81200
O272        O  0.60927714  0.86857703  0.70430904    -0.74800
Al273      Al  0.55338773  0.93641669  0.73539749     1.90100
O274        O  0.53785086  0.83132833  0.72096508    -0.73800
O275        O  0.56380264  0.89229479  0.67183363    -0.73700
O276        O  0.49121846  0.85923105  0.69087929    -0.79300
O277        O  0.55759831  0.97139869  0.67398430    -0.77600
O278        O  0.53929452  0.92604775  0.70931259    -1.13700
O279        O  0.54660989  0.02401986  0.70645313    -0.72900
C280        C  0.57816988  0.02705846  0.71837260     0.97800
C281        C  0.52262042  0.84015696  0.73820617     0.94200
Al282      Al  0.54949678  0.86809211  0.69782122     1.55600
O283        O  0.50748954  0.97829626  0.74145117    -0.77500
C284        C  0.57088252  0.93408239  0.66475651     0.98400
C285        C  0.62303221  0.87256012  0.72237838     0.93300
O286        O  0.60237250  0.89654704  0.73539906    -0.82800
O287        O  0.67596496  0.01125253  0.52541429    -0.82300
C288        C  0.78908607  0.91727094  0.57616216     0.97100
O289        O  0.78438616  0.95898803  0.56842719    -0.71400
O290        O  0.75976475  0.02259514  0.54058443    -0.75000
Al291      Al  0.73141124  0.99009662  0.56301342     1.49000
C292        C  0.76979624  0.00931717  0.52273132     0.92300
O293        O  0.71906554  0.88151574  0.51465700    -0.81200
O294        O  0.65955873  0.85931366  0.54474766    -0.74800
Al295      Al  0.69928419  0.94591851  0.52249417     1.90100
O296        O  0.74642913  0.85138639  0.54271205    -0.73800
O297        O  0.66892732  0.90624691  0.57941311    -0.73700
O298        O  0.75677837  0.88997114  0.57868468    -0.79300
O299        O  0.70613324  0.96998554  0.58884613    -0.77600
O300        O  0.71286444  0.93927906  0.54859658    -1.13700
O301        O  0.68056093  0.02530661  0.55839894    -0.72900
C302        C  0.66617292  0.03626936  0.54101421     0.97800
C303        C  0.73807956  0.84725871  0.52403748     0.94200
Al304      Al  0.70811236  0.88169546  0.56061089     1.55600
O305        O  0.75422462  0.97047456  0.51548436    -0.77500
C306        C  0.67595648  0.93996018  0.59201262     0.98400
C307        C  0.63477842  0.87905505  0.53188430     0.93300
O308        O  0.64247447  0.92196296  0.52599583    -0.82800
O309        O  0.39665914  0.58393461  0.77247291    -0.82300
C310        C  0.53891240  0.58545771  0.82550651     0.97100
O311        O  0.50763042  0.61467565  0.82732596    -0.71400
O312        O  0.50221503  0.64990620  0.79079545    -0.75000
Al313      Al  0.46069721  0.62416449  0.80828133     1.49000
C314        C  0.49554110  0.65345751  0.77200018     0.92300
O315        O  0.50841297  0.53365012  0.76542284    -0.81200
O316        O  0.42776610  0.48272078  0.80601337    -0.74800
Al317      Al  0.45312195  0.55858151  0.77039678     1.90100
O318        O  0.50843616  0.48083396  0.79049003    -0.73800
O319        O  0.45200513  0.53742817  0.83674247    -0.73700
O320        O  0.53257382  0.54346730  0.81831508    -0.79300
O321        O  0.41879223  0.60371661  0.82695079    -0.77600
O322        O  0.46387731  0.56590890  0.79683417    -1.13700
O323        O  0.41418236  0.64711638  0.79116169    -0.72900
C324        C  0.38981744  0.62743326  0.77799484     0.97800
C325        C  0.52200044  0.49485477  0.77337301     0.94200
Al326      Al  0.47905836  0.51514460  0.81186021     1.55600
O327        O  0.47429078  0.62143511  0.76246212    -0.77500
C328        C  0.42327086  0.56941312  0.83951266     0.98400
C329        C  0.41650953  0.47036156  0.78827033     0.93300
O330        O  0.42898677  0.49391915  0.77281680    -0.82800
O331        O  0.36339783  0.58512644  0.97693431    -0.82300
C332        C  0.20954574  0.58746056  0.93114883     0.97100
O333        O  0.23995359  0.61765949  0.92953627    -0.71400
O334        O  0.25408125  0.65141756  0.96622677    -0.75000
Al335      Al  0.29046518  0.62630573  0.94603262     1.49000
C336        C  0.26526311  0.65427999  0.98463385     0.92300
O337        O  0.25547286  0.53217362  0.99133949    -0.81200
O338        O  0.32270926  0.48344365  0.94530379    -0.74800
Al339      Al  0.30835787  0.55905204  0.98262793     1.90100
O340        O  0.24589204  0.48314134  0.96534872    -0.73800
O341        O  0.29254784  0.53966020  0.91670922    -0.73700
O342        O  0.21648240  0.54599273  0.93864771    -0.79300
O343        O  0.32689609  0.60692556  0.92473640    -0.77600
O344        O  0.29002727  0.56739093  0.95711213    -1.13700
O345        O  0.34053415  0.64913704  0.96037758    -0.72900
C346        C  0.36839594  0.62894599  0.97159703     0.97800
C347        C  0.23829866  0.49464376  0.98366961     0.94200
Al348      Al  0.27087951  0.51716326  0.94263158     1.55600
O349        O  0.28896750  0.62184438  0.99252559    -0.77500
C350        C  0.31927591  0.57278954  0.91236671     0.98400
C351        C  0.33917647  0.47102686  0.96202071     0.93300
O352        O  0.33197157  0.49496083  0.97814585    -0.82800
O353        O  0.66961716  0.50835781  0.01972309    -0.82300
C354        C  0.78368242  0.41631669  0.07050549     0.97100
O355        O  0.77713729  0.45811948  0.06325311    -0.71400
O356        O  0.75144868  0.52035230  0.03563208    -0.75000
Al357      Al  0.72344494  0.48674095  0.05760474     1.49000
C358        C  0.76264618  0.50788752  0.01786029     0.92300
O359        O  0.71345377  0.38039957  0.00817026    -0.81200
O360        O  0.65595707  0.35543223  0.03848099    -0.74800
Al361      Al  0.69330412  0.44364713  0.01668493     1.90100
O362        O  0.74305899  0.35086810  0.03578818    -0.73800
O363        O  0.66437602  0.39855662  0.07372591    -0.73700
O364        O  0.75274644  0.38669784  0.07225384    -0.79300
O365        O  0.69808877  0.46512925  0.08290015    -0.77600
O366        O  0.70684958  0.43605292  0.04281883    -1.13700
O367        O  0.67188236  0.51960056  0.05287857    -0.72900
C368        C  0.65887977  0.53201702  0.03547528     0.97800
C369        C  0.73428827  0.34712206  0.01714235     0.94200
Al370      Al  0.70411318  0.37772456  0.05427338     1.55600
O371        O  0.74795197  0.46914878  0.01009807    -0.77500
C372        C  0.66991499  0.43286527  0.08616348     0.98400
C373        C  0.63021623  0.37579590  0.02621076     0.93300
O374        O  0.63721000  0.41883971  0.02035477    -0.82800
O375        O  0.57210743  0.51704807  0.22525809    -0.82300
C376        C  0.45707874  0.41757494  0.17709945     0.97100
O377        O  0.46246384  0.45964008  0.18433255    -0.71400
O378        O  0.48731109  0.52423488  0.21109752    -0.75000
Al379      Al  0.51501777  0.49152559  0.18881825     1.49000
C380        C  0.47885522  0.51216648  0.22921638     0.92300
O381        O  0.53372841  0.38784909  0.23874878    -0.81200
O382        O  0.58933119  0.36354297  0.20763591    -0.74800
Al383      Al  0.55120328  0.45156210  0.22931915     1.90100
O384        O  0.50252011  0.35596038  0.21179473    -0.73800
O385        O  0.57613627  0.40550733  0.17202432    -0.73700
O386        O  0.48880643  0.38913662  0.17521802    -0.79300
O387        O  0.53906802  0.47006017  0.16314471    -0.77600
O388        O  0.53532667  0.44231796  0.20354378    -1.13700
O389        O  0.56501537  0.52860521  0.19233443    -0.72900
C390        C  0.57866584  0.54245704  0.20948615     0.97800
C391        C  0.51174149  0.35442250  0.23043563     0.94200
Al392      Al  0.53911444  0.38352242  0.19242438     1.55600
O393        O  0.49636984  0.47507351  0.23698692    -0.77500
C394        C  0.56794786  0.43884303  0.15943237     0.98400
C395        C  0.61534639  0.38521955  0.21942368     0.93300
O396        O  0.60793256  0.42871566  0.22475463    -0.82800
O397        O  0.36064166  0.09328378  0.47867484    -0.82300
C398        C  0.21139644  0.09688652  0.42999448     0.97100
O399        O  0.24209522  0.12675181  0.42825316    -0.71400
O400        O  0.25355676  0.16096953  0.46484390    -0.75000
Al401      Al  0.29156436  0.13508721  0.44570789     1.49000
C402        C  0.26302468  0.16401355  0.48342514     0.92300
O403        O  0.25003365  0.04332729  0.49033015    -0.81200
O404        O  0.32258200  0.99280685  0.44633286    -0.74800
Al405      Al  0.30456147  0.06843078  0.48299633     1.90100
O406        O  0.24394768  0.99310718  0.46450962    -0.73800
O407        O  0.29534666  0.04789439  0.41683296    -0.73700
O408        O  0.21805000  0.05548247  0.43749216    -0.79300
O409        O  0.32991695  0.11465739  0.42535647    -0.77600
O410        O  0.28940023  0.07659701  0.45703480    -1.13700
O411        O  0.34049357  0.15726618  0.46117578    -0.72900
C412        C  0.36658501  0.13702288  0.47334024     0.97800
C413        C  0.23388206  0.00551160  0.48242340     0.94200
Al414      Al  0.27136669  0.02639069  0.44237564     1.55600
O415        O  0.28538020  0.13150627  0.49203124    -0.77500
C416        C  0.32298185  0.08032983  0.41300687     0.98400
C417        C  0.33483836  0.97837696  0.46357412     0.93300
O418        O  0.32703839  0.00340185  0.47935832    -0.82800
O419        O  0.38438383  0.09410748  0.27361555    -0.82300
C420        C  0.53519530  0.10589528  0.32055705     0.97100
O421        O  0.50329425  0.13382097  0.32302839    -0.71400
O422        O  0.48860958  0.16838254  0.28684516    -0.75000
Al423      Al  0.45264250  0.13935441  0.30615885     1.49000
C424        C  0.47957385  0.17017371  0.26818964     0.92300
O425        O  0.49650356  0.04948764  0.26103191    -0.81200
O426        O  0.42763696  0.99505793  0.30565996    -0.74800
Al427      Al  0.44130819  0.07214465  0.26884147     1.90100
O428        O  0.50503093  0.99864570  0.28645181    -0.73800
O429        O  0.45380574  0.05248877  0.33514837    -0.73700
O430        O  0.52989791  0.06383819  0.31330036    -0.79300
O431        O  0.41583268  0.11622341  0.32657455    -0.77600
O432        O  0.45699582  0.08098175  0.29464893    -1.13700
O433        O  0.40213509  0.15868869  0.29137233    -0.72900
C434        C  0.37612462  0.13686679  0.27967714     0.97800
C435        C  0.51388022  0.01194619  0.26848506     0.94200
Al436      Al  0.47759345  0.03161104  0.30909336     1.55600
O437        O  0.45809539  0.13651565  0.25971370    -0.77500
C438        C  0.42394255  0.08251291  0.33899267     0.98400
C439        C  0.41338977  0.98155503  0.28858196     0.93300
O440        O  0.42083904  0.00602193  0.27262490    -0.82800
O441        O  0.07562241  0.50683222  0.72555924    -0.82300
C442        C  0.95785606  0.40592114  0.67969913     0.97100
O443        O  0.96391531  0.44837864  0.68637415    -0.71400
O444        O  0.99071706  0.51397960  0.71259937    -0.75000
Al445      Al  0.01715364  0.47940077  0.69008105     1.49000
C446        C  0.98248692  0.50151057  0.73075657     0.92300
O447        O  0.03818490  0.37776645  0.74076387    -0.81200
O448        O  0.09091374  0.35227150  0.70900201    -0.74800
Al449      Al  0.05488046  0.44120999  0.73046298     1.90100
O450        O  0.00466997  0.34576205  0.71465055    -0.73800
O451        O  0.07628880  0.39104719  0.67300494    -0.73700
O452        O  0.98920727  0.37695270  0.67783221    -0.79300
O453        O  0.04003716  0.45648073  0.66436971    -0.77600
O454        O  0.03761818  0.43071398  0.70494997    -1.13700
O455        O  0.06792287  0.51480330  0.69259520    -0.72900
C456        C  0.08203601  0.53057387  0.70928648     0.97800
C457        C  0.01627981  0.34349243  0.73301177     0.94200
Al458      Al  0.04019488  0.37138898  0.69435221     1.55600
O459        O  0.00040786  0.46467669  0.73847325    -0.77500
C460        C  0.06852724  0.42482233  0.66057497     0.98400
C461        C  0.11792010  0.37420019  0.72015817     0.93300
O462        O  0.11127744  0.41800069  0.72533871    -0.82800
O463        O  0.17443478  0.51316074  0.52335533    -0.82300
C464        C  0.28881799  0.41399204  0.57262515     0.97100
O465        O  0.28349350  0.45605965  0.56543838    -0.71400
O466        O  0.25965740  0.52081545  0.53826014    -0.75000
Al467      Al  0.23058556  0.48735234  0.56030083     1.49000
C468        C  0.26848767  0.50874262  0.52007633     0.92300
O469        O  0.21549834  0.38471711  0.50982147    -0.81200
O470        O  0.16100310  0.35770350  0.53962412    -0.74800
Al471      Al  0.19639560  0.44777966  0.51925769     1.90100
O472        O  0.24797798  0.35501407  0.53683955    -0.73800
O473        O  0.16936814  0.39892080  0.57548201    -0.73700
O474        O  0.25702382  0.38577820  0.57418033    -0.79300
O475        O  0.20394782  0.46440431  0.58550780    -0.77600
O476        O  0.21169844  0.43844103  0.54510244    -1.13700
O477        O  0.18069254  0.52396265  0.55633478    -0.72900
C478        C  0.16777710  0.53848441  0.53920283     0.97800
C479        C  0.23827863  0.35223326  0.51826703     0.94200
Al480      Al  0.20889975  0.37928268  0.55579006     1.55600
O481        O  0.25078801  0.47221717  0.51196969    -0.77500
C482        C  0.17497235  0.43246528  0.58834516     0.98400
C483        C  0.13454910  0.37868838  0.52794351     0.93300
O484        O  0.14002210  0.42312486  0.52348059    -0.82800
O485        O  0.89293102  0.08073406  0.77574090    -0.82300
C486        C  0.04105810  0.09231736  0.82485371     0.97100
O487        O  0.00831452  0.11903977  0.82706515    -0.71400
O488        O  0.99621194  0.15509664  0.79058184    -0.75000
Al489      Al  0.95920356  0.12472678  0.80919895     1.49000
C490        C  0.98805354  0.15713030  0.77177758     0.92300
O491        O  0.00482292  0.03630510  0.76399502    -0.81200
O492        O  0.93662980  0.97992068  0.80758577    -0.74800
Al493      Al  0.94995268  0.05864657  0.77148720     1.90100
O494        O  0.01433921  0.98649605  0.78967571    -0.73800
O495        O  0.96046286  0.03715539  0.83749825    -0.73700
O496        O  0.03746157  0.05060897  0.81701746    -0.79300
O497        O  0.92082214  0.09967274  0.82850992    -0.77600
O498        O  0.96492580  0.06688291  0.79740676    -1.13700
O499        O  0.91026472  0.14468213  0.79379173    -0.72900
C500        C  0.88490686  0.12361406  0.78164098     0.97800
C501        C  0.02297701  0.99980699  0.77176767     0.94200
Al502      Al  0.98569293  0.01755743  0.81185722     1.55600
O503        O  0.96796947  0.12271873  0.76303068    -0.77500
C504        C  0.92930561  0.06572612  0.84072170     0.98400
C505        C  0.92196131  0.96693606  0.79048522     0.93300
O506        O  0.92881738  0.99263483  0.77481197    -0.82800
O507        O  0.86143895  0.08770406  0.97699696    -0.82300
C508        C  0.71110087  0.08758757  0.92907488     0.97100
O509        O  0.74226835  0.11676851  0.92671480    -0.71400
O510        O  0.75440518  0.15442138  0.96303154    -0.75000
Al511      Al  0.79208982  0.12673990  0.94407220     1.49000
C512        C  0.76399495  0.15800509  0.98165565     0.92300
O513        O  0.75201111  0.03624092  0.98970858    -0.81200
O514        O  0.82308729  0.98623448  0.94523946    -0.74800
Al515      Al  0.80583238  0.06199940  0.98177351     1.90100
O516        O  0.74558941  0.98423376  0.96450058    -0.73800
O517        O  0.79334375  0.03946674  0.91569840    -0.73700
O518        O  0.71724553  0.04677315  0.93731410    -0.79300
O519        O  0.83104437  0.10386899  0.92426857    -0.77600
O520        O  0.78964709  0.06905298  0.95599698    -1.13700
O521        O  0.84095052  0.15079206  0.95921017    -0.72900
C522        C  0.86728419  0.13124700  0.97141802     0.97800
C523        C  0.73617784  0.99767839  0.98238347     0.94200
Al524      Al  0.77119477  0.01820733  0.94178243     1.55600
O525        O  0.78562079  0.12498804  0.99039194    -0.77500
C526        C  0.82338445  0.06926820  0.91215418     0.98400
C527        C  0.83763551  0.97277240  0.96221161     0.93300
O528        O  0.82970517  0.99723419  0.97817079    -0.82800
O529        O  0.88655733  0.67098725  0.97608342    -0.82300
C530        C  0.03730056  0.65842928  0.92943098     0.97100
O531        O  0.00451630  0.63186519  0.92676867    -0.71400
O532        O  0.99067842  0.59713750  0.96296982    -0.75000
Al533      Al  0.95445004  0.62631804  0.94398999     1.49000
C534        C  0.98158878  0.59454700  0.98158609     0.92300
O535        O  0.99793924  0.71446708  0.99014185    -0.81200
O536        O  0.93273339  0.77030554  0.94494329    -0.74800
Al537      Al  0.94334731  0.69239809  0.98149606     1.90100
O538        O  0.00908928  0.76449050  0.96473645    -0.73800
O539        O  0.95782110  0.71313477  0.91559878    -0.73700
O540        O  0.03361845  0.69963395  0.93770203    -0.79300
O541        O  0.91714762  0.65127515  0.92417085    -0.77600
O542        O  0.95980569  0.68402733  0.95586719    -1.13700
O543        O  0.90443519  0.60592934  0.95890426    -0.72900
C544        C  0.87869340  0.62777465  0.97061060     0.97800
C545        C  0.01654694  0.75118065  0.98285432     0.94200
Al546      Al  0.98175513  0.73297201  0.94180468     1.55600
O547        O  0.96044583  0.62812441  0.99025110    -0.77500
C548        C  0.92609157  0.68533686  0.91211441     0.98400
C549        C  0.91674773  0.78311202  0.96165781     0.93300
O550        O  0.92290710  0.75827666  0.97766071    -0.82800
O551        O  0.86383519  0.66688289  0.77456234    -0.82300
C552        C  0.71292717  0.65563779  0.82153102     0.97100
O553        O  0.74586462  0.62927562  0.82459702    -0.71400
O554        O  0.76072371  0.59329633  0.78869892    -0.75000
Al555      Al  0.79678352  0.62359555  0.80739501     1.49000
C556        C  0.76827118  0.59083103  0.76992354     0.92300
O557        O  0.75327262  0.71256866  0.76097251    -0.81200
O558        O  0.81838076  0.76663498  0.80660512    -0.74800
Al559      Al  0.80737356  0.68913051  0.76963991     1.90100
O560        O  0.74295076  0.76190177  0.78660568    -0.73800
O561        O  0.79153491  0.70994209  0.83563775    -0.73700
O562        O  0.71699948  0.69623799  0.81284111    -0.79300
O563        O  0.83440058  0.64995625  0.82708353    -0.77600
O564        O  0.79107979  0.68085082  0.79528465    -1.13700
O565        O  0.84664857  0.60294118  0.79232218    -0.72900
C566        C  0.87149507  0.62374896  0.77988363     0.97800
C567        C  0.73655106  0.75053271  0.76820668     0.94200
Al568      Al  0.76896626  0.72970385  0.80933476     1.55600
O569        O  0.78864663  0.62468429  0.76096476    -0.77500
C570        C  0.82416525  0.68372673  0.83913031     0.98400
C571        C  0.83536807  0.77966690  0.79016064     0.93300
O572        O  0.82939161  0.75503709  0.77393995    -0.82800
O573        O  0.07647140  0.24640896  0.02483399    -0.82300
C574        C  0.95857328  0.34805134  0.07056077     0.97100
O575        O  0.96388124  0.30673952  0.06263677    -0.71400
O576        O  0.98984202  0.24128538  0.03653730    -0.75000
Al577      Al  0.01593338  0.27345000  0.05963030     1.49000
C578        C  0.98270362  0.25438967  0.01836843     0.92300
O579        O  0.03986002  0.37675354  0.01094377    -0.81200
O580        O  0.09400796  0.40009419  0.04315642    -0.74800
Al581      Al  0.05640885  0.31281250  0.02035622     1.90100
O582        O  0.00827533  0.40889442  0.03762958    -0.73800
O583        O  0.07868439  0.35616031  0.07818104    -0.73700
O584        O  0.99076802  0.37543039  0.07365449    -0.79300
O585        O  0.03772733  0.29395224  0.08606274    -0.77600
O586        O  0.03855579  0.32211720  0.04571624    -1.13700
O587        O  0.06556922  0.23573628  0.05743812    -0.72900
C588        C  0.08110135  0.22106302  0.04087684     0.97800
C589        C  0.01792521  0.41042643  0.01905738     0.94200
Al590      Al  0.04283741  0.38030762  0.05739322     1.55600
O591        O  0.00193798  0.29068952  0.01106570    -0.77500
C592        C  0.06861650  0.32235626  0.09015497     0.98400
C593        C  0.12022679  0.37824915  0.03166643     0.93300
O594        O  0.11286885  0.33469277  0.02640401    -0.82800
O595        O  0.16528041  0.25484109  0.22884079    -0.82300
C596        C  0.28366099  0.34900611  0.18036114     0.97100
O597        O  0.27788168  0.30801670  0.18846867    -0.71400
O598        O  0.25034047  0.24587483  0.21552304    -0.75000
Al599      Al  0.22425526  0.27806105  0.19282300     1.49000
C600        C  0.25782926  0.25698245  0.23389130     0.92300
O601        O  0.20710212  0.38441739  0.24182084    -0.81200
O602        O  0.15290916  0.40890934  0.21030774    -0.74800
Al603      Al  0.18783619  0.32036431  0.23272361     1.90100
O604        O  0.23990703  0.41355153  0.21488509    -0.73800
O605        O  0.16440822  0.36403083  0.17520773    -0.73700
O606        O  0.25238640  0.37811092  0.17837146    -0.79300
O607        O  0.20108166  0.29892020  0.16681075    -0.77600
O608        O  0.20492488  0.32817390  0.20709506    -1.13700
O609        O  0.17318147  0.24305882  0.19607377    -0.72900
C610        C  0.15911700  0.22904403  0.21303819     0.97800
C611        C  0.23033518  0.41664382  0.23344549     0.94200
Al612      Al  0.20246508  0.38636423  0.19547777     1.55600
O613        O  0.24138763  0.29491984  0.24149570    -0.77500
C614        C  0.17096653  0.32878806  0.16327779     0.98400
C615        C  0.12595049  0.38799379  0.22169872     0.93300
O616        O  0.13216298  0.34445181  0.22704825    -0.82800
O617        O  0.36015176  0.67546468  0.27367386    -0.82300
C618        C  0.21031014  0.67089198  0.32022253     0.97100
O619        O  0.24241513  0.64387276  0.32350763    -0.71400
O620        O  0.25177246  0.60911658  0.28680068    -0.75000
Al621      Al  0.29082063  0.63487259  0.30573436     1.49000
C622        C  0.26106339  0.60546681  0.26823600     0.92300
O623        O  0.25109996  0.72735461  0.26050755    -0.81200
O624        O  0.32106383  0.77744468  0.30556808    -0.74800
Al625      Al  0.30464836  0.70107794  0.26862634     1.90100
O626        O  0.24323479  0.77731883  0.28631238    -0.73800
O627        O  0.29409147  0.72095636  0.33466801    -0.73700
O628        O  0.21596491  0.71288351  0.31292453    -0.79300
O629        O  0.33040759  0.65613202  0.32551008    -0.77600
O630        O  0.28858643  0.69327390  0.29429818    -1.13700
O631        O  0.33859589  0.61111832  0.29018548    -0.72900
C632        C  0.36515536  0.63123538  0.27843653     0.97800
C633        C  0.23470369  0.76527420  0.26810605     0.94200
Al634      Al  0.26987303  0.74321400  0.30883750     1.55600
O635        O  0.28400592  0.63753535  0.25957074    -0.77500
C636        C  0.32388523  0.69030408  0.33799751     0.98400
C637        C  0.33563297  0.79092094  0.28864038     0.93300
O638        O  0.32849463  0.76593107  0.27267927    -0.82800
O639        O  0.38888924  0.67595056  0.47872326    -0.82300
C640        C  0.53586021  0.66729350  0.43014999     0.97100
O641        O  0.50334989  0.64060476  0.42738963    -0.71400
O642        O  0.49176408  0.60394969  0.46361982    -0.75000
Al643      Al  0.45445340  0.63384224  0.44484622     1.49000
C644        C  0.48440833  0.60196512  0.48244117     0.92300
O645        O  0.49999601  0.72447534  0.49028880    -0.81200
O646        O  0.42866272  0.77802615  0.44639493    -0.74800
Al647      Al  0.44531547  0.69983584  0.48273850     1.90100
O648        O  0.50718059  0.77518398  0.46491495    -0.73800
O649        O  0.45445991  0.72165402  0.41644835    -0.73700
O650        O  0.53162752  0.70954728  0.43758349    -0.79300
O651        O  0.41639794  0.65754704  0.42478206    -0.77600
O652        O  0.45940957  0.69196115  0.45673047    -1.13700
O653        O  0.40568212  0.61279145  0.46014757    -0.72900
C654        C  0.38128250  0.63292127  0.47296351     0.97800
C655        C  0.51624286  0.76265256  0.48297580     0.94200
Al656      Al  0.47904237  0.74198624  0.44239327     1.55600
O657        O  0.46482737  0.63641169  0.49128559    -0.77500
C658        C  0.42554761  0.69070422  0.41227324     0.98400
C659        C  0.41355182  0.78933303  0.46355854     0.93300
O660        O  0.42235036  0.76462813  0.47930917    -0.82800
O661        O  0.67257282  0.23868226  0.73293355    -0.82300
C662        C  0.78538878  0.33250406  0.68229587     0.97100
O663        O  0.77966768  0.29073060  0.68968019    -0.71400
O664        O  0.75509382  0.22847458  0.71725920    -0.75000
Al665      Al  0.72648050  0.26088865  0.69515099     1.49000
C666        C  0.76555879  0.24114613  0.73513775     0.92300
O667        O  0.71481525  0.36783954  0.74451301    -0.81200
O668        O  0.65797796  0.39139424  0.71380777    -0.74800
Al669      Al  0.69531192  0.30394793  0.73594537     1.90100
O670        O  0.74464518  0.39641217  0.71693660    -0.73800
O671        O  0.66654080  0.34852940  0.67851201    -0.73700
O672        O  0.75401287  0.36135218  0.68046127    -0.79300
O673        O  0.70085832  0.28216949  0.66956462    -0.77600
O674        O  0.70892348  0.31130233  0.70979949    -1.13700
O675        O  0.67571206  0.22624234  0.69985163    -0.72900
C676        C  0.66278246  0.21397377  0.71727464     0.97800
C677        C  0.73578337  0.40085235  0.73550618     0.94200
Al678      Al  0.70581867  0.36951295  0.69827393     1.55600
O679        O  0.75009201  0.27942033  0.74287834    -0.77500
C680        C  0.67365272  0.31533683  0.66573870     0.98400
C681        C  0.63260766  0.37145232  0.72619902     0.93300
O682        O  0.63886702  0.32811814  0.73194596    -0.82800
O683        O  0.57521581  0.24991617  0.52388240    -0.82300
C684        C  0.46429888  0.35055966  0.57363371     0.97100
O685        O  0.46856597  0.30858289  0.56611024    -0.71400
O686        O  0.49091864  0.24460602  0.53862232    -0.75000
Al687      Al  0.52023870  0.27566335  0.56096106     1.49000
C688        C  0.48115357  0.25871104  0.52088066     0.92300
O689        O  0.53755431  0.38157481  0.51203371    -0.81200
O690        O  0.59594678  0.40225769  0.54315343    -0.74800
Al691      Al  0.55476363  0.31691565  0.52060499     1.90100
O692        O  0.50986673  0.41381030  0.53957461    -0.73800
O693        O  0.58421880  0.35844441  0.57840363    -0.73700
O694        O  0.49676330  0.37778655  0.57583187    -0.79300
O695        O  0.54582018  0.29474578  0.58665449    -0.77600
O696        O  0.54068700  0.32520629  0.54661351    -1.13700
O697        O  0.56941289  0.23802543  0.55678271    -0.72900
C698        C  0.58220938  0.22398597  0.53957332     0.97800
C699        C  0.51793976  0.41614598  0.52082560     0.94200
Al700      Al  0.54646465  0.38310683  0.55843371     1.55600
O701        O  0.49897340  0.29557643  0.51328256    -0.77500
C702        C  0.57615933  0.32403807  0.59048305     0.98400
C703        C  0.62046649  0.38143529  0.53056865     0.93300
O704        O  0.61213316  0.33849837  0.52470449    -0.82800
C705        C  0.65060117  0.31688707  0.64599202    -0.00600
C706        C  0.63469340  0.27372261  0.63730468    -0.12500
C707        C  0.60972287  0.27482834  0.61944571     0.01600
C708        C  0.60171370  0.31978553  0.60954307    -0.00700
C709        C  0.61904690  0.36258982  0.61793403    -0.12500
C710        C  0.64269010  0.36169346  0.63603149     0.01500
H711        H  0.64070996  0.23915851  0.64483075     0.14500
H712        H  0.61333818  0.39735589  0.61052976     0.14500
C713        C  0.65881231  0.40749131  0.64385526     0.36100
C714        C  0.59303396  0.22933117  0.61168745     0.36000
N715        N  0.67143241  0.44428015  0.65013077    -0.44200
N716        N  0.57952109  0.19269555  0.60569042    -0.44200
C717        C  0.49459824  0.55630532  0.49344462    -0.00600
C718        C  0.52672786  0.52574476  0.48567746    -0.12500
C719        C  0.53369448  0.47917346  0.49367324     0.01600
C720        C  0.50814468  0.46212419  0.50992047    -0.00700
C721        C  0.47614333  0.49283041  0.51776249    -0.12500
C722        C  0.46910462  0.53934910  0.50972527     0.01500
H723        H  0.54656144  0.53829590  0.47325290     0.14500
H724        H  0.45651084  0.48048355  0.53033022     0.14500
C725        C  0.43464230  0.56799846  0.51819958     0.36100
C726        C  0.56822279  0.45069969  0.48520029     0.36000
N727        N  0.40716294  0.59102428  0.52506509    -0.44200
N728        N  0.59579647  0.42805298  0.47821866    -0.44200
C729        C  0.35094778  0.69267706  0.35677142    -0.00600
C730        C  0.37192309  0.64983994  0.36314696    -0.12500
C731        C  0.39699450  0.64897621  0.38086342     0.01600
C732        C  0.40279544  0.69187787  0.39240717    -0.00700
C733        C  0.38455025  0.73551310  0.38537827    -0.12500
C734        C  0.35760975  0.73601530  0.36813075     0.01500
H735        H  0.36801881  0.61638508  0.35452680     0.14500
H736        H  0.39028142  0.76891375  0.39373037     0.14500
C737        C  0.33705895  0.78135154  0.36269088     0.36100
C738        C  0.41736800  0.60371040  0.38662849     0.36000
N739        N  0.32018671  0.81758999  0.35852372    -0.44200
N740        N  0.43382679  0.56760193  0.39132496    -0.44200
C741        C  0.24079997  0.46233573  0.24419236    -0.00600
C742        C  0.20767711  0.48603126  0.25470580    -0.12500
C743        C  0.21245192  0.53414494  0.26143745     0.01600
C744        C  0.25122783  0.55908620  0.25796709    -0.00700
C745        C  0.28460493  0.53519314  0.24774429    -0.12500
C746        C  0.27971800  0.48725610  0.24081363     0.01500
H747        H  0.17708057  0.46781096  0.25670809     0.14500
H748        H  0.31516404  0.55349953  0.24574471     0.14500
C749        C  0.31543307  0.46411331  0.23073399     0.36100
C750        C  0.17635540  0.55820671  0.27077279     0.36000
N751        N  0.34429816  0.44583376  0.22276055    -0.44200
N752        N  0.14724337  0.57782242  0.27793820    -0.44200
C753        C  0.14323231  0.32288506  0.14502341    -0.00600
C754        C  0.16033322  0.30280275  0.12709383    -0.12500
C755        C  0.13560298  0.30008970  0.10922840     0.01600
C756        C  0.09301166  0.31722648  0.10922876    -0.00700
C757        C  0.07510265  0.33467559  0.12730595    -0.12500
C758        C  0.09967472  0.33752754  0.14515775     0.01500
H759        H  0.19338932  0.29052310  0.12686072     0.14500
H760        H  0.04219044  0.34745864  0.12731702     0.14500
C761        C  0.07909980  0.35486764  0.16346633     0.36100
C762        C  0.15437138  0.27975999  0.09101039     0.36000
N763        N  0.06274679  0.36860750  0.17818952    -0.44200
N764        N  0.16907049  0.26323552  0.07638448    -0.44200
C765        C  0.75720330  0.54471923  0.75948392    -0.00600
C766        C  0.72747011  0.51358726  0.76890464    -0.12500
C767        C  0.72153069  0.46568205  0.76223959     0.01600
C768        C  0.74541365  0.44799754  0.74551413    -0.00700
C769        C  0.77465060  0.47941471  0.73592383    -0.12500
C770        C  0.78069218  0.52723433  0.74266573     0.01500
H771        H  0.70922567  0.52644156  0.78190537     0.14500
H772        H  0.79284948  0.46668237  0.72291739     0.14500
C773        C  0.81231881  0.55657749  0.73239314     0.36100
C774        C  0.69003402  0.43644783  0.77269697     0.36000
N775        N  0.83762962  0.58009635  0.72414365    -0.44200
N776        N  0.66466427  0.41343631  0.78116415    -0.44200
C777        C  0.99196267  0.54898114  0.99224333    -0.00600
C778        C  0.02444473  0.51939022  0.98412022    -0.12500
C779        C  0.03208026  0.47275477  0.99167675     0.01600
C780        C  0.00671713  0.45487352  0.00777577    -0.00700
C781        C  0.97373817  0.48411161  0.01561722    -0.12500
C782        C  0.96633946  0.53082767  0.00819322     0.01500
H783        H  0.04402376  0.53272740  0.97168017     0.14500
H784        H  0.95406523  0.47077172  0.02803013     0.14500
C785        C  0.93204965  0.55849834  0.01731025     0.36100
C786        C  0.06693916  0.44524980  0.98293170     0.36000
N787        N  0.90482509  0.58010681  0.02511357    -0.44200
N788        N  0.09483061  0.42362289  0.97566856    -0.44200
C789        C  0.89933867  0.69139648  0.89368869    -0.00600
C790        C  0.91898042  0.69902390  0.87478235    -0.12500
C791        C  0.89463726  0.69831597  0.85677884     0.01600
C792        C  0.84990419  0.69109928  0.85768998    -0.00700
C793        C  0.82994279  0.68692132  0.87661683    -0.12500
C794        C  0.85424713  0.68632055  0.89455415     0.01500
H795        H  0.95346821  0.70338103  0.87399918     0.14500
H796        H  0.79551901  0.68179429  0.87731664     0.14500
C797        C  0.83205453  0.68005642  0.91363595     0.36100
C798        C  0.91598054  0.70518013  0.83751328     0.36000
N799        N  0.81417454  0.67485435  0.92888014    -0.44200
N800        N  0.93269438  0.71086480  0.82199879    -0.44200
C801        C  0.86000195  0.92525181  0.96295161    -0.00600
C802        C  0.85877064  0.89674923  0.94512275    -0.12500
C803        C  0.87486349  0.84968361  0.94471601     0.01600
C804        C  0.89365597  0.82981039  0.96242098    -0.00700
C805        C  0.89501097  0.85782006  0.98037280    -0.12500
C806        C  0.87847124  0.90534897  0.98078703     0.01500
H807        H  0.84426654  0.91071421  0.93127563     0.14500
H808        H  0.91024678  0.84320611  0.99390697     0.14500
C809        C  0.88185067  0.93273505  0.99952652     0.36100
C810        C  0.87103169  0.82288979  0.92578492     0.36000
N811        N  0.88475252  0.95455087  0.01458031    -0.44200
N812        N  0.86799225  0.80204516  0.91050226    -0.44200
C813        C  0.95420711  0.22424086  0.00527078    -0.00600
C814        C  0.95681773  0.17339868  0.00716633    -0.12500
C815        C  0.93142925  0.14231107  0.99522138     0.01600
C816        C  0.90132649  0.16186290  0.98125931    -0.00700
C817        C  0.89967544  0.21304101  0.97895721    -0.12500
C818        C  0.92592589  0.24413149  0.99064708     0.01500
H819        H  0.97936456  0.15771537  0.01792493     0.14500
H820        H  0.87668642  0.22913911  0.96852694     0.14500
C821        C  0.92157148  0.29620638  0.98803994     0.36100
C822        C  0.93745697  0.09049614  0.99769392     0.36000
N823        N  0.91794155  0.33788693  0.98588419    -0.44200
N824        N  0.94256138  0.04897621  0.99962955    -0.44200
C825        C  0.85980239  0.82617212  0.79004621    -0.00600
C826        C  0.86976912  0.84866680  0.77141974    -0.12500
C827        C  0.88918272  0.89490372  0.77086995     0.01600
C828        C  0.89859930  0.91975726  0.78929555    -0.00700
C829        C  0.88858723  0.89699986  0.80778524    -0.12500
C830        C  0.87013782  0.85093241  0.80841008     0.01500
H831        H  0.86193319  0.83043380  0.75721833     0.14500
H832        H  0.89570477  0.91504435  0.82213418     0.14500
C833        C  0.86280265  0.83056828  0.82839990     0.36100
C834        C  0.89950132  0.91516472  0.75122227     0.36000
N835        N  0.85693068  0.81472791  0.84446997    -0.44200
N836        N  0.90775312  0.93117452  0.73542486    -0.44200
C837        C  0.90284829  0.06085956  0.85910801    -0.00600
C838        C  0.85809533  0.06224216  0.85696498    -0.12500
C839        C  0.83150987  0.06387732  0.87406358     0.01600
C840        C  0.84981498  0.06402019  0.89372392    -0.00700
C841        C  0.89460204  0.06186678  0.89587671    -0.12500
C842        C  0.92119631  0.06013711  0.87874104     0.01500
H843        H  0.84394002  0.06361032  0.84183958     0.14500
H844        H  0.90882090  0.06256322  0.91098968     0.14500
C845        C  0.96711705  0.06155996  0.88154618     0.36100
C846        C  0.78595825  0.06974339  0.87101867     0.36000
N847        N  0.00396973  0.06312451  0.88349819    -0.44200
N848        N  0.74954866  0.07514686  0.86847206    -0.44200
C849        C  0.84931889  0.15181478  0.77212177    -0.00600
C850        C  0.82765354  0.13144448  0.75533725    -0.12500
C851        C  0.80047240  0.15958514  0.74309320     0.01600
C852        C  0.79433257  0.20968655  0.74751096    -0.00700
C853        C  0.81416171  0.22945124  0.76488542    -0.12500
C854        C  0.84108406  0.20124956  0.77722863     0.01500
H855        H  0.83311339  0.09356657  0.75121812     0.14500
H856        H  0.80896483  0.26749094  0.76880652     0.14500
C857        C  0.85983279  0.22453389  0.79490715     0.36100
C858        C  0.77913996  0.13567816  0.72623926     0.36000
N859        N  0.87477107  0.24315657  0.80909502    -0.44200
N860        N  0.76194625  0.11674988  0.71271246    -0.44200
C861        C  0.34781698  0.60301165  0.48327226    -0.00600
C862        C  0.34833171  0.55212799  0.48019027    -0.12500
C863        C  0.32353533  0.52070303  0.49210980     0.01600
C864        C  0.29712031  0.53986729  0.50761130    -0.00700
C865        C  0.29560848  0.59063318  0.51039602    -0.12500
C866        C  0.32039120  0.62216071  0.49846296     0.01500
H867        H  0.36959534  0.53631349  0.46895449     0.14500
H868        H  0.27465376  0.60589029  0.52191059     0.14500
C869        C  0.31763790  0.67378644  0.50261869     0.36100
C870        C  0.32751343  0.46886721  0.48859967     0.36000
N871        N  0.31574752  0.71517228  0.50598508    -0.44200
N872        N  0.33106409  0.42746300  0.48559366    -0.44200
C873        C  0.33299432  0.39733241  0.57797242    -0.00600
C874        C  0.36615091  0.43212461  0.57859987    -0.12500
C875        C  0.40937510  0.41813563  0.57895353     0.01600
C876        C  0.42036378  0.36809291  0.57860612    -0.00700
C877        C  0.38725182  0.33348902  0.57995825    -0.12500
C878        C  0.34405826  0.34741340  0.57969860     0.01500
H879        H  0.35842580  0.47058998  0.57774386     0.14500
H880        H  0.39503888  0.29493052  0.58010547     0.14500
C881        C  0.31236273  0.30904207  0.57968848     0.36100
C882        C  0.44132160  0.45617452  0.57823155     0.36000
N883        N  0.28731717  0.27792444  0.57964113    -0.44200
N884        N  0.46679720  0.48679961  0.57768766    -0.44200
C885        C  0.99760524  0.20287028  0.76073139    -0.00600
C886        C  0.02744672  0.23562331  0.76921701    -0.12500
C887        C  0.03285401  0.28254044  0.76124369     0.01600
C888        C  0.00810039  0.29754625  0.74424337    -0.00700
C889        C  0.97850099  0.26457665  0.73574634    -0.12500
C890        C  0.97306164  0.21788201  0.74370283     0.01500
H891        H  0.04626588  0.22481144  0.78239543     0.14500
H892        H  0.95940340  0.27519305  0.72266340     0.14500
C893        C  0.94064073  0.18738831  0.73440335     0.36100
C894        C  0.06430354  0.31377718  0.77084233     0.36000
N895        N  0.91459841  0.16321687  0.72687612    -0.44200
N896        N  0.08939840  0.33851435  0.77877337    -0.44200
C897        C  0.14753874  0.43237092  0.60692657    -0.00600
C898        C  0.12563622  0.38904521  0.61188952    -0.12500
C899        C  0.09893753  0.38627689  0.62891165     0.01600
C900        C  0.09357425  0.42740515  0.64154647    -0.00700
C901        C  0.11441282  0.47104129  0.63649799    -0.12500
C902        C  0.14113119  0.47395210  0.61936539     0.01500
H903        H  0.12931863  0.35681284  0.60242327     0.14500
H904        H  0.11023664  0.50284597  0.64615582     0.14500
C905        C  0.16008305  0.52047934  0.61458400     0.36100
C906        C  0.07610257  0.34134670  0.63262827     0.36000
N907        N  0.17494783  0.55795651  0.61070582    -0.44200
N908        N  0.05760934  0.30542686  0.63543943    -0.44200
C909        C  0.95435355  0.53242317  0.74361535    -0.00600
C910        C  0.95603648  0.58327928  0.74136912    -0.12500
C911        C  0.93206576  0.61439997  0.75393884     0.01600
C912        C  0.90507101  0.59458424  0.76918472    -0.00700
C913        C  0.90451737  0.54362670  0.77169151    -0.12500
C914        C  0.92828263  0.51269755  0.75905560     0.01500
H915        H  0.97672258  0.59896140  0.72981529     0.14500
H916        H  0.88360876  0.52733145  0.78293044     0.14500
C917        C  0.92282757  0.46075792  0.76145696     0.36100
C918        C  0.93592848  0.66625432  0.75060520     0.36000
N919        N  0.91777231  0.41924810  0.76345309    -0.44200
N920        N  0.93938640  0.70771101  0.74777860    -0.44200
C921        C  0.91357144  0.38823662  0.67568418    -0.00600
C922        C  0.90659276  0.33764454  0.67560105    -0.12500
C923        C  0.86530858  0.31817063  0.67694918     0.01600
C924        C  0.82929370  0.34961734  0.67720329    -0.00700
C925        C  0.83615192  0.40009439  0.67530391    -0.12500
C926        C  0.87755584  0.41968827  0.67502286     0.01500
H927        H  0.93372604  0.31288347  0.67621070     0.14500
H928        H  0.80906995  0.42494794  0.67556260     0.14500
C929        C  0.88154006  0.47218620  0.67534794     0.36100
C930        C  0.86175193  0.26610195  0.67969492     0.36000
N931        N  0.88421084  0.51426782  0.67587920    -0.44200
N932        N  0.85955160  0.22445189  0.68227956    -0.44200
C933        C  0.39064065  0.93466426  0.28741240    -0.00600
C934        C  0.40016304  0.90188380  0.27156757    -0.12500
C935        C  0.38339439  0.85436504  0.27155774     0.01600
C936        C  0.35694844  0.83915306  0.28776259    -0.00700
C937        C  0.34735712  0.87254250  0.30341610    -0.12500
C938        C  0.36347351  0.91981305  0.30326317     0.01500
H939        H  0.42173849  0.91290910  0.25953312     0.14500
H940        H  0.32609157  0.86227998  0.31567584     0.14500
C941        C  0.35037474  0.95290809  0.31924732     0.36100
C942        C  0.39478611  0.82193282  0.25509681     0.36000
N943        N  0.33971393  0.97956726  0.33194123    -0.44200
N944        N  0.40388457  0.79601715  0.24186479    -0.44200
C945        C  0.28456677  0.22391138  0.24667225    -0.00600
C946        C  0.30028228  0.24049802  0.26554489    -0.12500
C947        C  0.32721944  0.21123796  0.27755507     0.01600
C948        C  0.33929874  0.16417948  0.27069433    -0.00700
C949        C  0.32062040  0.14620302  0.25266531    -0.12500
C950        C  0.29359915  0.17526758  0.24071464     0.01500
H951        H  0.29238701  0.27689190  0.27076481     0.14500
H952        H  0.32876857  0.11002205  0.24725089     0.14500
C953        C  0.27603728  0.15393220  0.22232515     0.36100
C954        C  0.34226593  0.23099217  0.29670162     0.36000
N955        N  0.26181889  0.13740388  0.20753007    -0.44200
N956        N  0.35425149  0.24685399  0.31205185    -0.44200
C957        C  0.38823653  0.83434269  0.46523151    -0.00600
C958        C  0.39460061  0.86544329  0.48201421    -0.12500
C959        C  0.37707057  0.91251908  0.48220064     0.01600
C960        C  0.35415626  0.92937016  0.46498937    -0.00700
C961        C  0.34587469  0.89688070  0.44886755    -0.12500
C962        C  0.36163912  0.84955576  0.44911606     0.01500
H963        H  0.41441649  0.85356149  0.49469398     0.14500
H964        H  0.32579396  0.90790585  0.43613539     0.14500
C965        C  0.34752686  0.81646863  0.43334379     0.36100
C966        C  0.38319857  0.94253063  0.50006994     0.36000
N967        N  0.33467600  0.79015007  0.42096312    -0.44200
N968        N  0.38732193  0.96666846  0.51442955    -0.44200
C969        C  0.25412071  0.20994380  0.49392349    -0.00600
C970        C  0.28772242  0.23149692  0.50502811    -0.12500
C971        C  0.28455571  0.27956972  0.51180853     0.01600
C972        C  0.24704003  0.30636850  0.50772646    -0.00700
C973        C  0.21331844  0.28473278  0.49674672    -0.12500
C974        C  0.21660641  0.23678434  0.48981923     0.01500
H975        H  0.31719209  0.21150208  0.50765233     0.14500
H976        H  0.18369957  0.30462188  0.49427540     0.14500
C977        C  0.18082007  0.21540496  0.47897857     0.36100
C978        C  0.32045362  0.30128110  0.52244010     0.36000
N979        N  0.15232311  0.19788028  0.47032293    -0.44200
N980        N  0.34891797  0.31939761  0.53089985    -0.44200
C981        C  0.34676963  0.07931220  0.39366470    -0.00600
C982        C  0.37243200  0.03898874  0.38885677    -0.12500
C983        C  0.39831732  0.03892599  0.37137997     0.01600
C984        C  0.39819588  0.07976338  0.35813833    -0.00700
C985        C  0.37134574  0.11952091  0.36295909    -0.12500
C986        C  0.34589645  0.11953511  0.38043458     0.01500
H987        H  0.37302263  0.00791834  0.39906774     0.14500
H988        H  0.37007474  0.15104964  0.35305349     0.14500
C989        C  0.31779986  0.16050412  0.38413370     0.36100
C990        C  0.42430070  0.99637325  0.36758906     0.36000
N991        N  0.29490996  0.19292210  0.38713670    -0.44200
N992        N  0.44502960  0.96203475  0.36477658    -0.44200
C993        C  0.39991223  0.16745034  0.48362919    -0.00600
C994        C  0.39588034  0.21867992  0.48274973    -0.12500
C995        C  0.42164110  0.24932901  0.49475229     0.01600
C996        C  0.45172225  0.22885718  0.50833727    -0.00700
C997        C  0.45638410  0.17803038  0.50902569    -0.12500
C998        C  0.43164439  0.14740408  0.49660002     0.01500
H999        H  0.37153093  0.23509618  0.47311587     0.14500
H1000       H  0.48058795  0.16211705  0.51892269     0.14500
C1001       C  0.44100729  0.09589358  0.49701829     0.36100
C1002       C  0.41548247  0.30143315  0.49334241     0.36000
N1003       N  0.44942510  0.05480943  0.49731799    -0.44200
N1004       N  0.41043237  0.34314946  0.49216743    -0.44200
C1005       C  0.50171647  0.30966489  0.24159673    -0.00600
C1006       C  0.53554869  0.28505938  0.25125357    -0.12500
C1007       C  0.52974616  0.23810851  0.25899047     0.01600
C1008       C  0.48942737  0.21531134  0.25718261    -0.00700
C1009       C  0.45552027  0.24003923  0.24756887    -0.12500
C1010       C  0.46139311  0.28701103  0.23980143     0.01500
H1011       H  0.56707899  0.30175264  0.25198282     0.14500
H1012       H  0.42401272  0.22336539  0.24681165     0.14500
C1013       C  0.42538727  0.31233956  0.23082519     0.36100
C1014       C  0.56610274  0.21307649  0.26775270     0.36000
N1015       N  0.39678276  0.33335186  0.22379324    -0.44200
N1016       N  0.59549455  0.19290498  0.27446529    -0.44200
C1017       C  0.39801285  0.60124397  0.26775155    -0.00600
C1018       C  0.41846153  0.62160477  0.25075198    -0.12500
C1019       C  0.44378902  0.59333077  0.23776789     0.01600
C1020       C  0.45015957  0.54314992  0.24184147    -0.00700
C1021       C  0.43071214  0.52291351  0.25912295    -0.12500
C1022       C  0.40466290  0.55105922  0.27193400     0.01500
H1023       H  0.41348470  0.65974152  0.24704607     0.14500
H1024       H  0.43540173  0.48455706  0.26253614     0.14500
C1025       C  0.38487451  0.52690055  0.28900322     0.36100
C1026       C  0.46277066  0.61743762  0.22047687     0.36000
N1027       N  0.36893356  0.50739287  0.30262173    -0.44200
N1028       N  0.47754880  0.63712883  0.20661287    -0.44200
C1029       C  0.41288040  0.40017370  0.17250604    -0.00600
C1030       C  0.40471470  0.34978045  0.17266599    -0.12500
C1031       C  0.36267544  0.33179430  0.17343044     0.01600
C1032       C  0.32766020  0.36458321  0.17446226    -0.00700
C1033       C  0.33574617  0.41461504  0.17198254    -0.12500
C1034       C  0.37769630  0.43251469  0.17083317     0.01500
H1035       H  0.43119850  0.32426432  0.17331627     0.14500
H1036       H  0.30939627  0.44028249  0.17199019     0.14500
C1037       C  0.38332030  0.48442380  0.16832939     0.36100
C1038       C  0.35680964  0.27956097  0.17325538     0.36000
N1039       N  0.38751423  0.52602395  0.16620910    -0.44200
N1040       N  0.35239890  0.23766947  0.17287158    -0.44200
C1041       C  0.74356222  0.30043119  0.00684396    -0.00600
C1042       C  0.77450436  0.26954575  0.01553850    -0.12500
C1043       C  0.78012428  0.22189058  0.00852550     0.01600
C1044       C  0.75455297  0.20431033  0.99221818    -0.00700
C1045       C  0.72346212  0.23509531  0.98363717    -0.12500
C1046       C  0.71756374  0.28252071  0.99078142     0.01500
H1047       H  0.79413562  0.28249570  0.02812532     0.14500
H1048       H  0.70365461  0.22211662  0.97112171     0.14500
C1049       C  0.68324394  0.31064565  0.98179057     0.36100
C1050       C  0.81306995  0.19285042  0.01818479     0.36000
N1051       N  0.65556544  0.33267861  0.97447598    -0.44200
N1052       N  0.83942669  0.16994158  0.02611766    -0.44200
C1053       C  0.64340985  0.43455713  0.10475650    -0.00600
C1054       C  0.62949603  0.47972890  0.11237734    -0.12500
C1055       C  0.60345278  0.48245787  0.12971964     0.01600
C1056       C  0.59187174  0.43922385  0.14001810    -0.00700
C1057       C  0.60565817  0.39419643  0.13224725    -0.12500
C1058       C  0.63092357  0.39140295  0.11483101     0.01500
H1059       H  0.63884816  0.51307122  0.10467295     0.14500
H1060       H  0.59691292  0.36067116  0.13997545     0.14500
C1061       C  0.64520433  0.34376127  0.10829766     0.36100
C1062       C  0.59070507  0.52999340  0.13698517     0.36000
N1063       N  0.65664204  0.30553773  0.10315415    -0.44200
N1064       N  0.58068380  0.56829871  0.14266978    -0.44200
C1065       C  0.84335856  0.60019738  0.98055397    -0.00600
C1066       C  0.82861198  0.61688398  0.99953904    -0.12500
C1067       C  0.80364059  0.58729558  0.01217257     0.01600
C1068       C  0.79095454  0.54021361  0.00553584    -0.00700
C1069       C  0.80363226  0.52471465  0.98601138    -0.12500
C1070       C  0.82962398  0.55387383  0.97362924     0.01500
H1071       H  0.83911714  0.65198743  0.00527949     0.14500
H1072       H  0.79365090  0.48928626  0.98038249     0.14500
C1073       C  0.84150642  0.53508261  0.95388524     0.36100
C1074       C  0.79359455  0.60588898  0.03220531     0.36000
N1075       N  0.85086719  0.51986249  0.93806322    -0.44200
N1076       N  0.78604675  0.62063801  0.04832844    -0.44200
C1077       C  0.82827560  0.40015884  0.07523237    -0.00600
C1078       C  0.83685178  0.34991943  0.07545952    -0.12500
C1079       C  0.87888570  0.33213347  0.07530807     0.01600
C1080       C  0.91404563  0.36492117  0.07503084    -0.00700
C1081       C  0.90554058  0.41516186  0.07658437    -0.12500
C1082       C  0.86327237  0.43295834  0.07665744     0.01500
H1083       H  0.81057297  0.32407516  0.07454857     0.14500
H1084       H  0.93191439  0.44088756  0.07663486     0.14500
C1085       C  0.85695004  0.48509388  0.07761883     0.36100
C1086       C  0.88453989  0.27985146  0.07472051     0.36000
N1087       N  0.85169014  0.52683855  0.07836216    -0.44200
N1088       N  0.88910416  0.23798994  0.07414294    -0.44200
C1089       C  0.15569903  0.40595803  0.02172181    -0.00600
C1090       C  0.17402242  0.38628624  0.00396364    -0.12500
C1091       C  0.20048424  0.41418599  0.99132491     0.01600
C1092       C  0.21019468  0.46316311  0.99649073    -0.00700
C1093       C  0.19376572  0.48206666  0.01479646    -0.12500
C1094       C  0.16671204  0.45435084  0.02728184     0.01500
H1095       H  0.16597905  0.34946997  0.99926492     0.14500
H1096       H  0.20131483  0.51918929  0.01923168     0.14500
C1097       C  0.15045501  0.47719273  0.04551703     0.36100
C1098       C  0.21667649  0.39117489  0.97309668     0.36000
N1099       N  0.13750925  0.49581857  0.06008080    -0.44200
N1100       N  0.22940914  0.37259212  0.95847857    -0.44200
C1101       C  0.16527814  0.60279387  0.92556829    -0.00600
C1102       C  0.15758016  0.65264543  0.92222836    -0.12500
C1103       C  0.11590887  0.67125612  0.92158192     0.01600
C1104       C  0.08060792  0.63974308  0.92440720    -0.00700
C1105       C  0.08803955  0.58928490  0.92534234    -0.12500
C1106       C  0.12982480  0.57053568  0.92578311     0.01500
H1107       H  0.18422923  0.67792148  0.92122740     0.14500
H1108       H  0.06120442  0.56444001  0.92696389     0.14500
C1109       C  0.13495782  0.51826526  0.92682906     0.36100
C1110       C  0.11066021  0.72301780  0.91842885     0.36000
N1111       N  0.13872685  0.47631253  0.92749078    -0.44200
N1112       N  0.10693469  0.76451390  0.91579514    -0.44200
C1113       C  0.39532669  0.56836629  0.85781687    -0.00600
C1114       C  0.37624852  0.61227577  0.86420455    -0.12500
C1115       C  0.35033510  0.61422852  0.88150872     0.01600
C1116       C  0.34241778  0.57144837  0.89276145    -0.00700
C1117       C  0.35908519  0.52706056  0.88574468    -0.12500
C1118       C  0.38630141  0.52521700  0.86881001     0.01500
H1119       H  0.38203709  0.64563643  0.85580351     0.14500
H1120       H  0.35177812  0.49375364  0.89392847     0.14500
C1121       C  0.40422710  0.47858198  0.86319600     0.36100
C1122       C  0.33068675  0.66020475  0.88682161     0.36000
N1123       N  0.41858771  0.44103708  0.85891371    -0.44200
N1124       N  0.31468240  0.69702009  0.89087897    -0.44200
C1125       C  0.55090834  0.46347932  0.76167211    -0.00600
C1126       C  0.54023851  0.41407686  0.75929681    -0.12500
C1127       C  0.56481321  0.38341776  0.74690017     0.01600
C1128       C  0.60062936  0.40246586  0.73656007    -0.00700
C1129       C  0.61065430  0.45229614  0.73881686    -0.12500
C1130       C  0.58672463  0.48249992  0.75154266     0.01500
H1131       H  0.51225347  0.39960618  0.76691389     0.14500
H1132       H  0.63899455  0.46723360  0.73165616     0.14500
C1133       C  0.60177093  0.53153842  0.75533669     0.36100
C1134       C  0.55199330  0.33308923  0.74479527     0.36000
N1135       N  0.61452081  0.57040854  0.75861293    -0.44200
N1136       N  0.54144122  0.29282361  0.74312929    -0.44200
C1137       C  0.58364805  0.60230129  0.82972980    -0.00600
C1138       C  0.59185606  0.65263908  0.82976482    -0.12500
C1139       C  0.63371027  0.67083032  0.82838938     0.01600
C1140       C  0.66904110  0.63840553  0.82712402    -0.00700
C1141       C  0.66113255  0.58813211  0.82901954    -0.12500
C1142       C  0.61908020  0.56994576  0.83035902     0.01500
H1143       H  0.56531179  0.67817341  0.82944980     0.14500
H1144       H  0.68768501  0.56265892  0.82840696     0.14500
C1145       C  0.61330245  0.51785072  0.83198473     0.36100
C1146       C  0.63888341  0.72309411  0.82718784     0.36000
N1147       N  0.60839779  0.47616418  0.83337977    -0.44200
N1148       N  0.64307047  0.76491195  0.82597326    -0.44200
C1149       C  0.64028268  0.08108461  0.53896419    -0.00600
C1150       C  0.64882113  0.11350317  0.52295634    -0.12500
C1151       C  0.62961190  0.15983211  0.52228348     0.01600
C1152       C  0.60231625  0.17485170  0.53825015    -0.00700
C1153       C  0.59221637  0.14101980  0.55362194    -0.12500
C1154       C  0.61028169  0.09445597  0.55392106     0.01500
H1155       H  0.67157838  0.10318152  0.51125959     0.14500
H1156       H  0.56943873  0.15061456  0.56538834     0.14500
C1157       C  0.59596827  0.06027427  0.56917823     0.36100
C1158       C  0.63900551  0.19096380  0.50520811     0.36000
N1159       N  0.58389862  0.03269322  0.58117013    -0.44200
N1160       N  0.64636972  0.21531556  0.49128846    -0.44200
C1161       C  0.60004078  0.84988443  0.52167508    -0.00600
C1162       C  0.57471992  0.87219460  0.50651303    -0.12500
C1163       C  0.54705052  0.84488970  0.49395655     0.01600
C1164       C  0.54474860  0.79358612  0.49601645    -0.00700
C1165       C  0.56826631  0.77155252  0.51179019    -0.12500
C1166       C  0.59531809  0.79888051  0.52460927     0.01500
H1167       H  0.57697415  0.91123566  0.50415928     0.14500
H1168       H  0.56589070  0.73251600  0.51401603     0.14500
C1169       C  0.61797321  0.77291803  0.54044535     0.36100
C1170       C  0.52006176  0.87096957  0.47974987     0.36000
N1171       N  0.63587551  0.75200949  0.55319317    -0.44200
N1172       N  0.49819583  0.89215726  0.46856697    -0.44200
C1173       C  0.60053632  0.07480963  0.71931770    -0.00600
C1174       C  0.58888269  0.10991908  0.70465083    -0.12500
C1175       C  0.60713063  0.15611139  0.70452259     0.01600
C1176       C  0.63824575  0.16844541  0.71916680    -0.00700
C1177       C  0.64955360  0.13429752  0.73421780    -0.12500
C1178       C  0.63108112  0.08755172  0.73439074     0.01500
H1179       H  0.56527287  0.10149192  0.69299283     0.14500
H1180       H  0.67398771  0.14354902  0.74539882     0.14500
C1181       C  0.64418365  0.05365128  0.75001746     0.36100
C1182       C  0.59275442  0.19058704  0.68933582     0.36000
N1183       N  0.65454596  0.02620487  0.76246878    -0.44200
N1184       N  0.58115672  0.21830900  0.67725045    -0.44200
C1185       C  0.51261246  0.79758863  0.75041056    -0.00600
C1186       C  0.54755477  0.77308476  0.75925783    -0.12500
C1187       C  0.54372515  0.72465129  0.76550574     0.01600
C1188       C  0.50475538  0.70003082  0.76234096    -0.00700
C1189       C  0.47016035  0.72426146  0.75319483    -0.12500
C1190       C  0.47353830  0.77299910  0.74752739     0.01500
H1191       H  0.57844860  0.79115094  0.76035690     0.14500
H1192       H  0.43984450  0.70549215  0.75112426     0.14500
C1193       C  0.43661449  0.79677118  0.73868609     0.36100
C1194       C  0.58058545  0.70004736  0.77401276     0.36000
N1195       N  0.40647700  0.81530030  0.73188302    -0.44200
N1196       N  0.61017178  0.68002259  0.78060886    -0.44200
C1197       C  0.59548711  0.93809420  0.64553431    -0.00600
C1198       C  0.62118567  0.97926963  0.64176202    -0.12500
C1199       C  0.64730135  0.98170420  0.62433056     0.01600
C1200       C  0.64884788  0.94175284  0.61065335    -0.00700
C1201       C  0.62216917  0.90144516  0.61435289    -0.12500
C1202       C  0.59522353  0.89972318  0.63116091     0.01500
H1203       H  0.62107583  0.00939755  0.65246179     0.14500
H1204       H  0.62174331  0.87081487  0.60389843     0.14500
C1205       C  0.56619571  0.85879352  0.63258616     0.36100
C1206       C  0.67044155  0.02626305  0.62046883     0.36000
N1207       N  0.54275477  0.82619251  0.63351411    -0.44200
N1208       N  0.68849893  0.06222778  0.61718170    -0.44200
C1209       C  0.66017796  0.84443395  0.72997335    -0.00600
C1210       C  0.68289207  0.86373127  0.74663703    -0.12500
C1211       C  0.70856023  0.83414108  0.75892762     0.01600
C1212       C  0.71148209  0.78355507  0.75483510    -0.00700
C1213       C  0.69160840  0.76496178  0.73719481    -0.12500
C1214       C  0.66609077  0.79487356  0.72477154     0.01500
H1215       H  0.67890187  0.90187839  0.75066936     0.14500
H1216       H  0.69465357  0.72654327  0.73350654     0.14500
C1217       C  0.64381858  0.77288209  0.70776418     0.36100
C1218       C  0.73184567  0.85708118  0.77545246     0.36000
N1219       N  0.62595519  0.75540603  0.69409611    -0.44200
N1220       N  0.75071988  0.87535714  0.78862787    -0.44200
C1221       C  0.75538427  0.70392996  0.49798540    -0.00600
C1222       C  0.72546003  0.73653796  0.48959838    -0.12500
C1223       C  0.72052588  0.78366221  0.49727849     0.01600
C1224       C  0.74548950  0.79933806  0.51408377    -0.00700
C1225       C  0.77371839  0.76580517  0.52329573    -0.12500
C1226       C  0.77906803  0.71862481  0.51540152     0.01500
H1227       H  0.70658893  0.72574092  0.47641864     0.14500
H1228       H  0.79213709  0.77663268  0.53659955     0.14500
C1229       C  0.81041557  0.68731816  0.52501947     0.36100
C1230       C  0.68911999  0.81458444  0.48753696     0.36000
N1231       N  0.83559371  0.66237636  0.53274288    -0.44200
N1232       N  0.66409999  0.83935364  0.47962111    -0.44200
C1233       C  0.70843365  0.46812845  0.49503941    -0.00600
C1234       C  0.69006985  0.48765058  0.51274086    -0.12500
C1235       C  0.66307434  0.45986575  0.52511784     0.01600
C1236       C  0.65518857  0.41004791  0.52046774    -0.00700
C1237       C  0.67552421  0.38982800  0.50330341    -0.12500
C1238       C  0.70082538  0.41842851  0.49035121     0.01500
H1239       H  0.69544894  0.52565340  0.51656496     0.14500
H1240       H  0.66944245  0.35216040  0.49914115     0.14500
C1241       C  0.71695676  0.39588502  0.47201574     0.36100
C1242       C  0.64223544  0.48498790  0.54170748     0.36000
N1243       N  0.72911580  0.37776042  0.45718741    -0.44200
N1244       N  0.62517655  0.50565285  0.55475062    -0.44200
C1245       C  0.66609007  0.61697760  0.42716894    -0.00600
C1246       C  0.63241515  0.58303346  0.42802298    -0.12500
C1247       C  0.58954279  0.59791969  0.42735305     0.01600
C1248       C  0.57945361  0.64818013  0.42594121    -0.00700
C1249       C  0.61296967  0.68166889  0.42340375    -0.12500
C1250       C  0.65585864  0.66675689  0.42392805     0.01500
H1251       H  0.63946088  0.54465890  0.43013455     0.14500
H1252       H  0.60570699  0.72017675  0.42192481     0.14500
C1253       C  0.68816507  0.70418845  0.42221552     0.36100
C1254       C  0.55720766  0.56061311  0.42950404     0.36000
N1255       N  0.71380071  0.73446980  0.42083310    -0.44200
N1256       N  0.53183331  0.53012980  0.43119791    -0.44200
C1257       C  0.89623134  0.57840870  0.35785303    -0.00600
C1258       C  0.88357474  0.62309000  0.36645187    -0.12500
C1259       C  0.85762272  0.62500443  0.38373778     0.01600
C1260       C  0.84405015  0.58143394  0.39313792    -0.00700
C1261       C  0.85485684  0.53667706  0.38403519    -0.12500
C1262       C  0.88086024  0.53473255  0.36660268     0.01500
H1263       H  0.89382651  0.65699297  0.35952454     0.14500
H1264       H  0.84326767  0.50303148  0.39067807     0.14500
C1265       C  0.88914933  0.48770249  0.35752542     0.36100
C1266       C  0.84336452  0.67226970  0.39072497     0.36000
N1267       N  0.89503159  0.44964261  0.35041441    -0.44200
N1268       N  0.83160006  0.71019042  0.39608632    -0.44200
C1269       C  0.09085327  0.41709256  0.23114648    -0.00600
C1270       C  0.09269286  0.46829434  0.22960343    -0.12500
C1271       C  0.06660352  0.49831063  0.24157468     0.01600
C1272       C  0.03790463  0.47733602  0.25556028    -0.00700
C1273       C  0.03443406  0.42640203  0.25650684    -0.12500
C1274       C  0.06000863  0.39624248  0.24430783     0.01500
H1275       H  0.11605739  0.48526672  0.21972890     0.14500
H1276       H  0.01126664  0.41007662  0.26669478     0.14500
C1277       C  0.05349151  0.34422364  0.24570832     0.36100
C1278       C  0.07174781  0.55051988  0.24004970     0.36000
N1279       N  0.04780449  0.30262656  0.24686254    -0.44200
N1280       N  0.07587780  0.59235350  0.23888365    -0.44200
C1281       C  0.16585739  0.65267677  0.32375576    -0.00600
C1282       C  0.13174019  0.68607989  0.32288853    -0.12500
C1283       C  0.08896713  0.67051952  0.32294799     0.01600
C1284       C  0.07917664  0.62007420  0.32361289    -0.00700
C1285       C  0.11321907  0.58673448  0.32529673    -0.12500
C1286       C  0.15605879  0.60237357  0.32556332     0.01500
H1287       H  0.13842474  0.72474190  0.32156115     0.14500
H1288       H  0.10643680  0.54798196  0.32581800     0.14500
C1289       C  0.18897292  0.56538161  0.32645707     0.36100
C1290       C  0.05616922  0.70750528  0.32140371     0.36000
N1291       N  0.21533926  0.53572902  0.32713126    -0.44200
N1292       N  0.02999604  0.73730652  0.32029369    -0.44200
C1293       C  0.13918517  0.17980473  0.21411314    -0.00600
C1294       C  0.14691043  0.14756449  0.19780716    -0.12500
C1295       C  0.13119082  0.10003416  0.19783341     0.01600
C1296       C  0.10477758  0.08427039  0.21382798    -0.00700
C1297       C  0.09848950  0.11516552  0.23066105    -0.12500
C1298       C  0.11632475  0.16221723  0.23119156     0.01500
H1299       H  0.16673301  0.15886911  0.18509235     0.14500
H1300       H  0.07891136  0.10282630  0.24331432     0.14500
C1301       C  0.11130107  0.19087307  0.24949220     0.36100
C1302       C  0.14479268  0.06698802  0.18194500     0.36000
N1303       N  0.10794192  0.21334329  0.26434636    -0.44200
N1304       N  0.15621992  0.03992944  0.16955256    -0.44200
C1305       C  0.99963877  0.80502918  0.24123204    -0.00600
C1306       C  0.97118455  0.77197878  0.23191154    -0.12500
C1307       C  0.96527039  0.72514858  0.23971003     0.01600
C1308       C  0.98879738  0.71027157  0.25710637    -0.00700
C1309       C  0.01751868  0.74317433  0.26619252    -0.12500
C1310       C  0.02245994  0.79033374  0.25881194     0.01500
H1311       H  0.95354546  0.78264288  0.21837025     0.14500
H1312       H  0.03586286  0.73232966  0.27946888     0.14500
C1313       C  0.05167556  0.82211823  0.26962827     0.36100
C1314       C  0.93398897  0.69424453  0.22975695     0.36000
N1315       N  0.07485603  0.84750361  0.27846687    -0.44200
N1316       N  0.90883550  0.66972370  0.22174451    -0.44200
C1317       C  0.14904039  0.85228938  0.23084316    -0.00600
C1318       C  0.17493170  0.87468104  0.24577843    -0.12500
C1319       C  0.20318970  0.84739277  0.25793288     0.01600
C1320       C  0.20614527  0.79627314  0.25533997    -0.00700
C1321       C  0.18213633  0.77422892  0.23973921    -0.12500
C1322       C  0.15366554  0.80128025  0.22767099     0.01500
H1323       H  0.17232480  0.91360569  0.24842871     0.14500
H1324       H  0.18458309  0.73518043  0.23735152     0.14500
C1325       C  0.12837765  0.77467260  0.21288967     0.36100
C1326       C  0.22938419  0.87317530  0.27260497     0.36000
N1327       N  0.10788787  0.75326172  0.20116667    -0.44200
N1328       N  0.25039342  0.89403674  0.28428909    -0.44200
C1329       C  0.13745043  0.07692658  0.03702429    -0.00600
C1330       C  0.11970506  0.09374752  0.05536402    -0.12500
C1331       C  0.10280404  0.14059762  0.05722246     0.01600
C1332       C  0.10193220  0.17214937  0.04010073    -0.00700
C1333       C  0.11849760  0.15481668  0.02152430    -0.12500
C1334       C  0.13637782  0.10793530  0.01987748     0.01500
H1335       H  0.12026040  0.07047390  0.06874495     0.14500
H1336       H  0.11792872  0.17813839  0.00819787     0.14500
C1337       C  0.15506418  0.09371426  0.00070802     0.36100
C1338       C  0.08750206  0.15476026  0.07715199     0.36000
N1339       N  0.17009318  0.08245589  0.98531776    -0.44200
N1340       N  0.07552313  0.16589309  0.09316737    -0.44200
C1341       C  0.25598188  0.69984024  0.99571544    -0.00600
C1342       C  0.28941888  0.72210468  0.00671236    -0.12500
C1343       C  0.28564656  0.77019358  0.01372807     0.01600
C1344       C  0.24773439  0.79678296  0.00977433    -0.00700
C1345       C  0.21404164  0.77406139  0.99913847    -0.12500
C1346       C  0.21777119  0.72599131  0.99221800     0.01500
H1347       H  0.31946396  0.70275115  0.00894278     0.14500
H1348       H  0.18411228  0.79339961  0.99678775     0.14500
C1349       C  0.18170378  0.70379540  0.98189959     0.36100
C1350       C  0.32187680  0.79215947  0.02399000     0.36000
N1351       N  0.15298329  0.68558136  0.97367081    -0.44200
N1352       N  0.35123292  0.80961174  0.03199591    -0.44200
C1353       C  0.15064108  0.93618215  0.10719946    -0.00600
C1354       C  0.12406013  0.97653050  0.11080341    -0.12500
C1355       C  0.09745775  0.97843702  0.12803824     0.01600
C1356       C  0.09748546  0.93925451  0.14211055    -0.00700
C1357       C  0.12478703  0.89927660  0.13833653    -0.12500
C1358       C  0.15114094  0.89756844  0.12123199     0.01500
H1359       H  0.12359512  0.00632246  0.09992209     0.14500
H1360       H  0.12592553  0.86886627  0.14886661     0.14500
C1361       C  0.17995705  0.85670956  0.11886067     0.36100
C1362       C  0.07106295  0.02112108  0.13083307     0.36000
N1363       N  0.20341840  0.82431293  0.11705999    -0.44200
N1364       N  0.05004541  0.05552888  0.13294222    -0.44200
C1365       C  0.04501764  0.78109325  0.99595348    -0.00600
C1366       C  0.04226446  0.83201188  0.99444769    -0.12500
C1367       C  0.06834446  0.86250768  0.00631355     0.01600
C1368       C  0.09909618  0.84208320  0.01975267    -0.00700
C1369       C  0.10033594  0.79093712  0.02189344    -0.12500
C1370       C  0.07344087  0.76052968  0.01032428     0.01500
H1371       H  0.01925813  0.84815809  0.98400285     0.14500
H1372       H  0.12359133  0.77430094  0.03205347     0.14500
C1373       C  0.07707935  0.70837145  0.01281818     0.36100
C1374       C  0.06265194  0.91453388  0.00424951     0.36000
N1375       N  0.07986041  0.66657370  0.01483425    -0.44200
N1376       N  0.05807980  0.95623564  0.00266192    -0.44200
C1377       C  0.14853281  0.58776293  0.53792058    -0.00600
C1378       C  0.16062231  0.62213365  0.55283247    -0.12500
C1379       C  0.14402916  0.66935349  0.55275997     0.01600
C1380       C  0.11399257  0.68287988  0.53775376    -0.00700
C1381       C  0.10360805  0.64972733  0.52215561    -0.12500
C1382       C  0.12073020  0.60246028  0.52204782     0.01500
H1383       H  0.18365611  0.61230102  0.56457134     0.14500
H1384       H  0.08049086  0.66002375  0.51053202     0.14500
C1385       C  0.10779005  0.56946336  0.50601107     0.36100
C1386       C  0.15963454  0.70373117  0.56775687     0.36000
N1387       N  0.09745174  0.54309405  0.49310951    -0.44200
N1388       N  0.17286315  0.73117524  0.57963354    -0.44200
C1389       C  0.20454769  0.97426070  0.49452812    -0.00600
C1390       C  0.18283319  0.99468208  0.51117416    -0.12500
C1391       C  0.15546060  0.96654078  0.52327519     0.01600
C1392       C  0.14985739  0.91611085  0.51910538    -0.00700
C1393       C  0.17225626  0.89565338  0.50262021    -0.12500
C1394       C  0.19905852  0.92395863  0.49035042     0.01500
H1395       H  0.18663466  0.03314234  0.51457033     0.14500
H1396       H  0.16806115  0.85743070  0.49887651     0.14500
C1397       C  0.22090303  0.89978172  0.47379394     0.36100
C1398       C  0.13281092  0.99121606  0.53944169     0.36000
N1399       N  0.23832141  0.88042407  0.46051171    -0.44200
N1400       N  0.11436038  0.01092135  0.55231293    -0.44200
C1401       C  0.90317251  0.66236753  0.48303882    -0.00600
C1402       C  0.92766299  0.64121774  0.49873641    -0.12500
C1403       C  0.95463180  0.66955103  0.51110078     0.01600
C1404       C  0.95736934  0.72047261  0.50799947    -0.00700
C1405       C  0.93435189  0.74136873  0.49185934    -0.12500
C1406       C  0.90770985  0.71313341  0.47937187     0.01500
H1407       H  0.92495147  0.60251594  0.50179164     0.14500
H1408       H  0.93679829  0.78022459  0.48907923     0.14500
C1409       C  0.88520656  0.73802769  0.46316070     0.36100
C1410       C  0.97986784  0.64502936  0.52648223     0.36000
N1411       N  0.86722624  0.75807303  0.45019343    -0.44200
N1412       N  0.00028075  0.62557361  0.53877968    -0.44200
C1413       C  0.91789166  0.86120268  0.57811976    -0.00600
C1414       C  0.91025853  0.91072300  0.58258194    -0.12500
C1415       C  0.86843171  0.92938045  0.58369244     0.01600
C1416       C  0.83294492  0.89831755  0.58037956    -0.00700
C1417       C  0.84041310  0.84815669  0.57789500    -0.12500
C1418       C  0.88212766  0.82942417  0.57668579     0.01500
H1419       H  0.93701653  0.93567875  0.58422285     0.14500
H1420       H  0.81354151  0.82367774  0.57551677     0.14500
C1421       C  0.88671867  0.77772074  0.57303847     0.36100
C1422       C  0.86288993  0.98070654  0.58788989     0.36000
N1423       N  0.89032879  0.73631555  0.57005273    -0.44200
N1424       N  0.85831663  0.02179415  0.59130791    -0.44200
C1425       C  0.13914259  0.67328773  0.71335191    -0.00600
C1426       C  0.11718932  0.65909366  0.69561976    -0.12500
C1427       C  0.09950718  0.61268694  0.69365808     0.01600
C1428       C  0.10323711  0.57890671  0.70991975    -0.00700
C1429       C  0.12494099  0.59325107  0.72774832    -0.12500
C1430       C  0.14290996  0.63985007  0.72958530     0.01500
H1431       H  0.11432065  0.68432053  0.68298271     0.14500
H1432       H  0.12814761  0.56789029  0.74030644     0.14500
C1433       C  0.16647397  0.65131459  0.74794187     0.36100
C1434       C  0.07739076  0.60188981  0.67475943     0.36000
N1435       N  0.18535038  0.66029291  0.76268977    -0.44200
N1436       N  0.05981898  0.59371193  0.65956374    -0.44200
C1437       C  0.14939083  0.82651481  0.64511179    -0.00600
C1438       C  0.13488564  0.78240025  0.63668771    -0.12500
C1439       C  0.10972025  0.78181358  0.61895367     0.01600
C1440       C  0.09959916  0.82612254  0.60903173    -0.00700
C1441       C  0.11427864  0.87013098  0.61747260    -0.12500
C1442       C  0.13847489  0.87081273  0.63541491     0.01500
H1443       H  0.14278678  0.74825516  0.64414777     0.14500
H1444       H  0.10651600  0.90441006  0.61008427     0.14500
C1445       C  0.15255874  0.91753802  0.64313990     0.36100
C1446       C  0.09588167  0.73518885  0.61105389     0.36000
N1447       N  0.16361984  0.95508260  0.64929277    -0.44200
N1448       N  0.08494104  0.69776498  0.60472054    -0.44200
C1449       C  0.05195113  0.96973632  0.75936652    -0.00600
C1450       C  0.04989769  0.91900673  0.76159190    -0.12500
C1451       C  0.07550405  0.88807863  0.74991015     0.01600
C1452       C  0.10399596  0.90798212  0.73538365    -0.00700
C1453       C  0.10532426  0.95911169  0.73299186    -0.12500
C1454       C  0.07989652  0.98993750  0.74490209     0.01500
H1455       H  0.02793360  0.90329873  0.77256440     0.14500
H1456       H  0.12762723  0.97545077  0.72238920     0.14500
C1457       C  0.08489221  0.04210496  0.74292237     0.36100
C1458       C  0.07236294  0.83639196  0.75378972     0.36000
N1459       N  0.08880571  0.08395072  0.74162708    -0.44200
N1460       N  0.06987867  0.79507503  0.75713014    -0.44200
C1461       C  0.35621312  0.65698542  0.76730977    -0.00600
C1462       C  0.32932514  0.63399990  0.75288952    -0.12500
C1463       C  0.30059647  0.66084296  0.74077489     0.01600
C1464       C  0.29806126  0.71206212  0.74295887    -0.00700
C1465       C  0.32460513  0.73503879  0.75735171    -0.12500
C1466       C  0.35352201  0.70846081  0.76933739     0.01500
H1467       H  0.33098138  0.59482349  0.75085186     0.14500
H1468       H  0.32323776  0.77434802  0.75906189     0.14500
C1469       C  0.38101585  0.73591501  0.78289855     0.36100
C1470       C  0.27332330  0.63452240  0.72671172     0.36000
N1471       N  0.40331541  0.75812814  0.79356329    -0.44200
N1472       N  0.25147854  0.61328926  0.71549380    -0.44200
C1473       C  0.33325824  0.84996987  0.67570216    -0.00600
C1474       C  0.36450893  0.81300244  0.67639026    -0.12500
C1475       C  0.40816661  0.82409148  0.67729251     0.01600
C1476       C  0.42158158  0.87329516  0.67700257    -0.00700
C1477       C  0.39052783  0.90993030  0.67418380    -0.12500
C1478       C  0.34677630  0.89894091  0.67377186     0.01500
H1479       H  0.35485796  0.77516150  0.67747395     0.14500
H1480       H  0.40010336  0.94790374  0.67382931     0.14500
C1481       C  0.31702487  0.93931901  0.67321826     0.36100
C1482       C  0.43785816  0.78399682  0.67944112     0.36000
N1483       N  0.29341579  0.97187529  0.67298948    -0.44200
N1484       N  0.46121752  0.75150151  0.68126850    -0.44200
C1485       C  0.39555407  0.32934101  0.96118738    -0.00600
C1486       C  0.40340583  0.36233387  0.94529211    -0.12500
C1487       C  0.38845858  0.41002395  0.94616903     0.01600
C1488       C  0.36338296  0.42519257  0.96276301    -0.00700
C1489       C  0.35643962  0.39307983  0.97901400    -0.12500
C1490       C  0.37278427  0.34556684  0.97852014     0.01500
H1491       H  0.42270036  0.35152859  0.93233343     0.14500
H1492       H  0.33712259  0.40464301  0.99185035     0.14500
C1493       C  0.36548220  0.31464584  0.99592957     0.36100
C1494       C  0.40193127  0.44350319  0.93054123     0.36000
N1495       N  0.36011286  0.29003685  0.00998247    -0.44200
N1496       N  0.41415634  0.47017395  0.91825649    -0.44200
C1497       C  0.54268369  0.28320079  0.99333070    -0.00600
C1498       C  0.54035108  0.33390992  0.99075800    -0.12500
C1499       C  0.56649258  0.36545131  0.00208278     0.01600
C1500       C  0.59537412  0.34624794  0.01673773    -0.00700
C1501       C  0.59587155  0.29541887  0.01994910    -0.12500
C1502       C  0.57049650  0.26395623  0.00821977     0.01500
H1503       H  0.51844617  0.34899062  0.97954672     0.14500
H1504       H  0.61819854  0.27959924  0.03076989     0.14500
C1505       C  0.57646323  0.21202182  0.01053620     0.36100
C1506       C  0.56416299  0.41683525  0.99741864     0.36000
N1507       N  0.58161519  0.17042284  0.01218230    -0.44200
N1508       N  0.56244117  0.45784919  0.99338040    -0.44200
C1509       C  0.58190980  0.13978344  0.92337465    -0.00600
C1510       C  0.58958607  0.08934188  0.92394560    -0.12500
C1511       C  0.63140514  0.07076511  0.92397776     0.01600
C1512       C  0.66680269  0.10315634  0.92370310    -0.00700
C1513       C  0.65889610  0.15313885  0.92096408    -0.12500
C1514       C  0.61710512  0.17161705  0.92077863     0.01500
H1515       H  0.56290616  0.06425799  0.92548439     0.14500
H1516       H  0.68549753  0.17850214  0.92012983     0.14500
C1517       C  0.61164672  0.22355214  0.91833724     0.36100
C1518       C  0.63658069  0.01843391  0.92463612     0.36000
N1519       N  0.60764669  0.26521116  0.91631462    -0.44200
N1520       N  0.64023160  0.97644284  0.92501010    -0.44200
C1521       C  0.34643080  0.09396043  0.98001500    -0.00600
C1522       C  0.35062910  0.04276900  0.98000170    -0.12500
C1523       C  0.32509391  0.01323319  0.99244306     0.01600
C1524       C  0.29437766  0.03452735  0.00541325    -0.00700
C1525       C  0.28912979  0.08543705  0.00509765    -0.12500
C1526       C  0.31430618  0.11505869  0.99241398     0.01500
H1527       H  0.37532667  0.02558465  0.97090245     0.14500
H1528       H  0.26468373  0.10206334  0.01450598     0.14500
C1529       C  0.30564295  0.16676110  0.99213136     0.36100
C1530       C  0.33269233  0.96127554  0.99241678     0.36000
N1531       N  0.29834883  0.20812242  0.99176025    -0.44200
N1532       N  0.33871493  0.91963625  0.99248221    -0.44200
C1533       C  0.35703270  0.33057617  0.78625749    -0.00600
C1534       C  0.34336250  0.36600707  0.80032572    -0.12500
C1535       C  0.36010685  0.41297495  0.80015589     0.01600
C1536       C  0.39170499  0.42528922  0.78587429    -0.00700
C1537       C  0.40456902  0.39071937  0.77130587    -0.12500
C1538       C  0.38772520  0.34332492  0.77148126     0.01500
H1539       H  0.31904102  0.35718534  0.81148879     0.14500
H1540       H  0.42961226  0.39986758  0.76055096     0.14500
C1541       C  0.40494188  0.30777900  0.75750123     0.36100
C1542       C  0.34403343  0.44825332  0.81463165     0.36000
N1543       N  0.41933000  0.27936651  0.74641370    -0.44200
N1544       N  0.33131657  0.47694143  0.82606064    -0.44200
C1545       C  0.25101854  0.94876191  0.74510859    -0.00600
C1546       C  0.21786636  0.97041496  0.75636549    -0.12500
C1547       C  0.22061362  0.01904303  0.76273291     0.01600
C1548       C  0.25721038  0.04691959  0.75794651    -0.00700
C1549       C  0.29066061  0.02508006  0.74695857    -0.12500
C1550       C  0.28791288  0.97642010  0.74058802     0.01500
H1551       H  0.18878253  0.95001933  0.75938360     0.14500
H1552       H  0.31974795  0.04548863  0.74400786     0.14500
C1553       C  0.32386716  0.95525680  0.72996551     0.36100
C1554       C  0.18500396  0.04009627  0.77367117     0.36000
N1555       N  0.35285427  0.93828022  0.72160876    -0.44200
N1556       N  0.15669264  0.05743004  0.78241976    -0.44200
C1557       C  0.35046848  0.18656705  0.85590336    -0.00600
C1558       C  0.39446983  0.19648545  0.85467344    -0.12500
C1559       C  0.42019534  0.19678749  0.87222397     0.01600
C1560       C  0.40180493  0.18543129  0.89125941    -0.00700
C1561       C  0.35762313  0.17612053  0.89238082    -0.12500
C1562       C  0.33186827  0.17701394  0.87493844     0.01500
H1563       H  0.40876829  0.20363424  0.83992004     0.14500
H1564       H  0.34317742  0.16768133  0.90697516     0.14500
C1565       C  0.28687971  0.16560427  0.87673604     0.36100
C1566       C  0.46540712  0.20680499  0.87016574     0.36000
N1567       N  0.25083574  0.15632886  0.87809380    -0.44200
N1568       N  0.50160702  0.21503748  0.86854132    -0.44200
C1569       C  0.15378108  0.34602516  0.72960741    -0.00600
C1570       C  0.17466952  0.36564287  0.74678179    -0.12500
C1571       C  0.20170191  0.33703432  0.75897898     0.01600
C1572       C  0.20850611  0.28721515  0.75417079    -0.00700
C1573       C  0.18983673  0.26844342  0.73628275    -0.12500
C1574       C  0.16286805  0.29712628  0.72404613     0.01500
H1575       H  0.16853012  0.40304732  0.75128607     0.14500
H1576       H  0.19559677  0.23082936  0.73199957     0.14500
C1577       C  0.14451486  0.27491138  0.70604201     0.36100
C1578       C  0.22205471  0.36023228  0.77627265     0.36000
N1579       N  0.12950517  0.25751762  0.69160291    -0.44200
N1580       N  0.23839847  0.37864676  0.79015201    -0.44200
C1581       C  0.16891851  0.14838381  0.82640460    -0.00600
C1582       C  0.16147322  0.09981325  0.83224457    -0.12500
C1583       C  0.11969981  0.08133429  0.83359864     0.01600
C1584       C  0.08429936  0.11189138  0.82941914    -0.00700
C1585       C  0.09154013  0.16157041  0.82584281    -0.12500
C1586       C  0.13314012  0.17994324  0.82405692     0.01500
H1587       H  0.18827632  0.07524889  0.83452986     0.14500
H1588       H  0.06465312  0.18548415  0.82269990     0.14500
C1589       C  0.13745893  0.23057649  0.81835102     0.36100
C1590       C  0.11420041  0.03046323  0.83856420     0.36000
N1591       N  0.14103394  0.27094830  0.81355339    -0.44200
N1592       N  0.10984347  0.98966927  0.84251222    -0.44200
C1593       C  0.39934719  0.09374078  0.76657900    -0.00600
C1594       C  0.41244031  0.04963120  0.77548806    -0.12500
C1595       C  0.43482105  0.01469082  0.76420839     0.01600
C1596       C  0.44425532  0.02333619  0.74354367    -0.00700
C1597       C  0.43142443  0.06727528  0.73458868    -0.12500
C1598       C  0.40957977  0.10263180  0.74589633     0.01500
H1599       H  0.40423071  0.04187905  0.79114141     0.14500
H1600       H  0.43971420  0.07466943  0.71891829     0.14500
C1601       C  0.39704540  0.14667721  0.73542290     0.36100
C1602       C  0.44659448  0.96954490  0.77404470     0.36000
N1603       N  0.38717890  0.18177173  0.72684606    -0.44200
N1604       N  0.45595340  0.93329841  0.78187856    -0.44200
C1605       C  0.63156407  0.68676719  0.21356578    -0.00600
C1606       C  0.64348393  0.65163983  0.22804659    -0.12500
C1607       C  0.62763412  0.60387455  0.22681387     0.01600
C1608       C  0.59843362  0.59125262  0.21120208    -0.00700
C1609       C  0.58500566  0.62725462  0.19738949    -0.12500
C1610       C  0.60111773  0.67460454  0.19849266     0.01500
H1611       H  0.66725231  0.66063830  0.23953067     0.14500
H1612       H  0.56145980  0.61857865  0.18575975     0.14500
C1613       C  0.58499113  0.71018270  0.18421849     0.26500
C1614       C  0.64412530  0.56780422  0.24077776     0.36000
N1615       N  0.57124758  0.73814441  0.17276225    -0.44200
N1616       N  0.65738995  0.53845659  0.25176153    -0.44200
C1617       C  0.59501386  0.91953257  0.23136617    -0.00600
C1618       C  0.59878183  0.97072711  0.23044254    -0.12500
C1619       C  0.57277931  0.00142757  0.24226357     0.01600
C1620       C  0.54243074  0.98124161  0.25567975    -0.00700
C1621       C  0.53759040  0.93032445  0.25620366    -0.12500
C1622       C  0.56290088  0.89954865  0.24405548     0.01500
H1623       H  0.62334919  0.98707663  0.22103009     0.14500
H1624       H  0.51327934  0.91444899  0.26595619     0.14500
C1625       C  0.55452761  0.84779404  0.24470941     0.36100
C1626       C  0.57922546  0.05346457  0.24101904     0.36000
N1627       N  0.54749772  0.80637459  0.24515877    -0.44200
N1628       N  0.58425997  0.09519098  0.24000767    -0.44200
C1629       C  0.78994162  0.72528751  0.24374141    -0.00600
C1630       C  0.81816202  0.74805540  0.25740145    -0.12500
C1631       C  0.84595734  0.72074494  0.26967016     0.01600
C1632       C  0.84460313  0.66888994  0.26906952    -0.00700
C1633       C  0.81561698  0.64630043  0.25559630    -0.12500
C1634       C  0.78908656  0.67380723  0.24276895     0.01500
H1635       H  0.81950208  0.78755230  0.25801466     0.14500
H1636       H  0.81465497  0.60690082  0.25450409     0.14500
C1637       C  0.76161881  0.64790804  0.22868553     0.36100
C1638       C  0.87704757  0.74761922  0.28161694     0.36000
N1639       N  0.74014793  0.62696211  0.21722410    -0.44200
N1640       N  0.90219385  0.76932844  0.29095209    -0.44200
C1641       C  0.82912621  0.86120146  0.17417399    -0.00600
C1642       C  0.83738416  0.91064658  0.17007108    -0.12500
C1643       C  0.87938700  0.92884365  0.16959487     0.01600
C1644       C  0.91450051  0.89734294  0.17308359    -0.00700
C1645       C  0.90652559  0.84726067  0.17535859    -0.12500
C1646       C  0.86459768  0.82899534  0.17604587     0.01500
H1647       H  0.81091413  0.93591842  0.16828692     0.14500
H1648       H  0.93311186  0.82247263  0.17796955     0.14500
C1649       C  0.85946004  0.77737479  0.17969964     0.36100
C1650       C  0.88544262  0.98028054  0.16598492     0.36000
N1651       N  0.85543658  0.73607603  0.18274523    -0.44200
N1652       N  0.89054623  0.02148216  0.16311734    -0.44200
C1653       C  0.60201155  0.67299852  0.03580265    -0.00600
C1654       C  0.58800505  0.63710600  0.04946803    -0.12500
C1655       C  0.60379592  0.58979250  0.04855970     0.01600
C1656       C  0.63443977  0.57744530  0.03377723    -0.00700
C1657       C  0.64720092  0.61240968  0.01943713    -0.12500
C1658       C  0.63133443  0.66017671  0.02035839     0.01500
H1659       H  0.56429985  0.64585589  0.06093918     0.14500
H1660       H  0.67144417  0.60316904  0.00825226     0.14500
C1661       C  0.64745481  0.69571456  0.00612234     0.36100
C1662       C  0.58781498  0.55452534  0.06296174     0.36000
N1663       N  0.66038174  0.72438913  0.99479834    -0.44200
N1664       N  0.57468654  0.52643501  0.07447308    -0.44200
C1665       C  0.49441286  0.04961456  0.99177036    -0.00600
C1666       C  0.52568655  0.01861895  0.98356784    -0.12500
C1667       C  0.53229068  0.97211154  0.99138437     0.01600
C1668       C  0.50735558  0.95600227  0.00802321    -0.00700
C1669       C  0.47624684  0.98709806  0.01627848    -0.12500
C1670       C  0.46963648  0.03357168  0.00843835     0.01500
H1671       H  0.54474277  0.03050956  0.97068772     0.14500
H1672       H  0.45711620  0.97520891  0.02911660     0.14500
C1673       C  0.43637815  0.06293097  0.01757340     0.36100
C1674       C  0.56550049  0.94277488  0.98215915     0.36000
N1675       N  0.40978306  0.08626632  0.02502442    -0.44200
N1676       N  0.59208821  0.91963930  0.97458659    -0.44200
C1677       C  0.64315363  0.82037822  0.14385506    -0.00600
C1678       C  0.66112208  0.80069396  0.12605078    -0.12500
C1679       C  0.63692952  0.79733292  0.10810075     0.01600
C1680       C  0.59412586  0.81342764  0.10790622    -0.00700
C1681       C  0.57520879  0.83004148  0.12591475    -0.12500
C1682       C  0.59932422  0.83360087  0.14388147     0.01500
H1683       H  0.69433205  0.78935672  0.12597473     0.14500
H1684       H  0.54204416  0.84171343  0.12576339     0.14500
C1685       C  0.57802784  0.84982658  0.16219093     0.36100
C1686       C  0.65659126  0.77741143  0.09001896     0.36000
N1687       N  0.56103874  0.86225063  0.17695459    -0.44200
N1688       N  0.67211691  0.76113156  0.07554290    -0.44200
C1689       C  0.70758825  0.96731075  0.99513530    -0.00600
C1690       C  0.67767336  0.99040244  0.00774367    -0.12500
C1691       C  0.64977844  0.96336161  0.01999945     0.01600
C1692       C  0.65213576  0.91152407  0.02019290    -0.00700
C1693       C  0.68308385  0.88868842  0.00795195    -0.12500
C1694       C  0.71050401  0.91589450  0.99549601     0.01500
H1695       H  0.67520495  0.02985275  0.00755637     0.14500
H1696       H  0.68533665  0.84925666  0.00774624     0.14500
C1697       C  0.74209885  0.88992669  0.98369384     0.36100
C1698       C  0.61758788  0.99028612  0.03111557     0.36000
N1699       N  0.76734886  0.86867283  0.97435744    -0.44200
N1700       N  0.59167420  0.01198606  0.03986287    -0.44200
C1701       C  0.45636744  0.72319081  0.00365433    -0.00600
C1702       C  0.45855465  0.67258433  0.00643662    -0.12500
C1703       C  0.43290013  0.64067394  0.99510987     0.01600
C1704       C  0.40331158  0.65933384  0.98067164    -0.00700
C1705       C  0.40272018  0.71014942  0.97722969    -0.12500
C1706       C  0.42892224  0.74201274  0.98847310     0.01500
H1707       H  0.48063065  0.65769546  0.01763846     0.14500
H1708       H  0.38032147  0.72554584  0.96631290     0.14500
C1709       C  0.42509509  0.79379239  0.98490405     0.36100
C1710       C  0.43768810  0.58921848  0.99910083     0.36000
N1711       N  0.42178464  0.83521679  0.98194714    -0.44200
N1712       N  0.44217916  0.54815921  0.00252965    -0.44200
C1713       C  0.41770527  0.86245373  0.07621411    -0.00600
C1714       C  0.41017689  0.91276292  0.07495719    -0.12500
C1715       C  0.36857201  0.93157412  0.07538395     0.01600
C1716       C  0.33310693  0.89954681  0.07693116    -0.00700
C1717       C  0.34105517  0.84972000  0.08041823    -0.12500
C1718       C  0.38285876  0.83103454  0.08011521     0.01500
H1719       H  0.43679895  0.93751644  0.07239294     0.14500
H1720       H  0.31446517  0.82463117  0.08221511     0.14500
C1721       C  0.38901834  0.77949001  0.08350483     0.36100
C1722       C  0.36361213  0.98373375  0.07349919     0.36000
N1723       N  0.39406773  0.73824522  0.08633360    -0.44200
N1724       N  0.35986068  0.02556064  0.07201620    -0.44200
C1725       C  0.85955932  0.33489116  0.28498793    -0.00600
C1726       C  0.84530044  0.37005030  0.27105924    -0.12500
C1727       C  0.86107236  0.41764961  0.27196607     0.01600
C1728       C  0.89082573  0.43030212  0.28735135    -0.00700
C1729       C  0.90613295  0.39417058  0.30070822    -0.12500
C1730       C  0.89118485  0.34656794  0.29941730     0.01500
H1731       H  0.82057973  0.36082853  0.26004591     0.14500
H1732       H  0.93061939  0.40276901  0.31190515     0.14500
C1733       C  0.90957050  0.30975508  0.31254309     0.36100
C1734       C  0.84542925  0.45262581  0.25729821     0.36000
N1735       N  0.92436588  0.27971118  0.32273247    -0.44200
N1736       N  0.83310073  0.48039809  0.24538947    -0.44200
C1737       C  0.74220447  0.96354587  0.24145866    -0.00600
C1738       C  0.77228241  0.99516270  0.23263370    -0.12500
C1739       C  0.77733159  0.04293170  0.23966472     0.01600
C1740       C  0.75170610  0.06003145  0.25592127    -0.00700
C1741       C  0.72152756  0.02855371  0.26462685    -0.12500
C1742       C  0.71677929  0.98075579  0.25775204     0.01500
H1743       H  0.79172821  0.98266745  0.22000593     0.14500
H1744       H  0.70195892  0.04104748  0.27720822     0.14500
C1745       C  0.68473926  0.95118143  0.26761259     0.36100
C1746       C  0.80992673  0.07259067  0.23019714     0.36000
N1747       N  0.65904751  0.92798818  0.27575485    -0.44200
N1748       N  0.83599563  0.09628010  0.22257372    -0.44200
C1749       C  0.70535257  0.29890926  0.25440077    -0.00600
C1750       C  0.68815578  0.28052677  0.23609991    -0.12500
C1751       C  0.66184243  0.30915877  0.22352734     0.01600
C1752       C  0.65087558  0.35730546  0.22940081    -0.00700
C1753       C  0.66993996  0.37653872  0.24715518    -0.12500
C1754       C  0.69721107  0.34832514  0.25944361     0.01500
H1755       H  0.69525058  0.24336043  0.23150009     0.14500
H1756       H  0.66269651  0.41358150  0.25184759     0.14500
C1757       C  0.71718213  0.37174898  0.27678522     0.36100
C1758       C  0.64744952  0.28816933  0.20450665     0.36000
N1759       N  0.73357600  0.39045823  0.29058714    -0.44200
N1760       N  0.63645847  0.27126231  0.18918434    -0.44200
C1761       C  0.66466649  0.15948367  0.32382089    -0.00600
C1762       C  0.65640518  0.10955396  0.32649014    -0.12500
C1763       C  0.61451110  0.09147122  0.32673464     0.01600
C1764       C  0.57935994  0.12371774  0.32465995    -0.00700
C1765       C  0.58743588  0.17401522  0.32356992    -0.12500
C1766       C  0.62939893  0.19211107  0.32289201     0.01500
H1767       H  0.68281774  0.08388987  0.32726444     0.14500
H1768       H  0.56085309  0.19928346  0.32182304     0.14500
C1769       C  0.63485643  0.24399285  0.32007915     0.36100
C1770       C  0.60884249  0.03936492  0.32840733     0.36000
N1771       N  0.63931723  0.28546078  0.31761868    -0.44200
N1772       N  0.60419085  0.99760899  0.32959954    -0.44200
C1773       C  0.94925436  0.03932278  0.24296437    -0.00600
C1774       C  0.95159435  0.09006961  0.24067609    -0.12500
C1775       C  0.92670236  0.12148418  0.25257973     0.01600
C1776       C  0.89804242  0.10220336  0.26718230    -0.00700
C1777       C  0.89691589  0.05119786  0.26990732    -0.12500
C1778       C  0.92197935  0.01984451  0.25797638     0.01500
H1779       H  0.97335541  0.10544453  0.22954600     0.14500
H1780       H  0.87487648  0.03531557  0.28077110     0.14500
C1781       C  0.91720100  0.96782726  0.26062197     0.36100
C1782       C  0.93098847  0.17318306  0.24903539     0.36000
N1783       N  0.91334308  0.92613564  0.26261880    -0.44200
N1784       N  0.93445610  0.21457454  0.24608101    -0.44200
C1785       C  0.89252784  0.33287959  0.46127730    -0.00600
C1786       C  0.89939669  0.36476767  0.44485727    -0.12500
C1787       C  0.88348547  0.41212278  0.44497832     0.01600
C1788       C  0.85882447  0.42843844  0.46154391    -0.00700
C1789       C  0.85175317  0.39692126  0.47804719    -0.12500
C1790       C  0.86860501  0.34951612  0.47814030     0.01500
H1791       H  0.91880766  0.35340835  0.43200152     0.14500
H1792       H  0.83216721  0.40898877  0.49071802     0.14500
C1793       C  0.86027112  0.31887308  0.49551981     0.36100
C1794       C  0.89545477  0.44393787  0.42847236     0.36000
N1795       N  0.85368015  0.29447580  0.50951802    -0.44200
N1796       N  0.90620444  0.46901924  0.41531424    -0.44200
C1797       C  0.00440940  0.95838139  0.50837206    -0.00600
C1798       C  0.97964850  0.99397953  0.51825571    -0.12500
C1799       C  0.97530053  0.04089289  0.51035780     0.01600
C1800       C  0.99679674  0.05362798  0.49218660    -0.00700
C1801       C  0.02158087  0.01798337  0.48227991    -0.12500
C1802       C  0.02492815  0.97063205  0.48988385     0.01500
H1803       H  0.96348558  0.98523414  0.53241551     0.14500
H1804       H  0.03751827  0.02663112  0.46805591     0.14500
C1805       C  0.04926841  0.93572005  0.47814151     0.36100
C1806       C  0.94695611  0.07399659  0.52089107     0.36000
N1807       N  0.06837990  0.90769068  0.46859726    -0.44200
N1808       N  0.92396954  0.10024898  0.52930611    -0.44200
C1809       C  0.90022503  0.18600654  0.39180478    -0.00600
C1810       C  0.88113709  0.23020583  0.38590744    -0.12500
C1811       C  0.85602827  0.23320626  0.36809073     0.01600
C1812       C  0.84920513  0.19102736  0.35598348    -0.00700
C1813       C  0.86959517  0.14733949  0.36178411    -0.12500
C1814       C  0.89508712  0.14468059  0.37930057     0.01500
H1815       H  0.88583381  0.26244182  0.39526681     0.14500
H1816       H  0.86591094  0.11480782  0.35251917     0.14500
C1817       C  0.91772227  0.09982612  0.38347684     0.36100
C1818       C  0.83979582  0.28041698  0.36216961     0.36000
N1819       N  0.93634685  0.06415131  0.38669011    -0.44200
N1820       N  0.82741488  0.31854216  0.35742676    -0.44200
C1821       C  0.10116512  0.34912489  0.51718335    -0.00600
C1822       C  0.08007767  0.36956693  0.50025286    -0.12500
C1823       C  0.05348764  0.34142300  0.48757465     0.01600
C1824       C  0.04688825  0.29136862  0.49180776    -0.00700
C1825       C  0.06737178  0.27107374  0.50887679    -0.12500
C1826       C  0.09432080  0.29898236  0.52141874     0.01500
H1827       H  0.08527237  0.40757355  0.49646938     0.14500
H1828       H  0.06271117  0.23284782  0.51237521     0.14500
C1829       C  0.11479002  0.27429455  0.53826943     0.36100
C1830       C  0.03316199  0.36545631  0.47052570     0.36000
N1831       N  0.13119467  0.25411154  0.55166044    -0.44200
N1832       N  0.01703582  0.38490457  0.45687024    -0.44200
C1833       C  0.08168797  0.14716721  0.42327695    -0.00600
C1834       C  0.08994352  0.09694692  0.42460614    -0.12500
C1835       C  0.13189506  0.07903756  0.42533862     0.01600
C1836       C  0.16697300  0.11184852  0.42462588    -0.00700
C1837       C  0.15861797  0.16150664  0.42125573    -0.12500
C1838       C  0.11663621  0.17939684  0.42063549     0.01500
H1839       H  0.06353523  0.07157105  0.42641479     0.14500
H1840       H  0.18500278  0.18716349  0.42026489     0.14500
C1841       C  0.11083681  0.23117893  0.41782270     0.36100
C1842       C  0.13752093  0.02703198  0.42768062     0.36000
N1843       N  0.10685899  0.27275877  0.41551998    -0.44200
N1844       N  0.14203830  0.98540233  0.42961453    -0.44200
C1845       C  0.85092492  0.09747146  0.48337061    -0.00600
C1846       C  0.83084830  0.11835295  0.50047826    -0.12500
C1847       C  0.80501080  0.09065837  0.51356550     0.01600
C1848       C  0.79822426  0.04036154  0.50974585    -0.00700
C1849       C  0.81705809  0.01979181  0.49228865    -0.12500
C1850       C  0.84314355  0.04740965  0.47926053     0.01500
H1851       H  0.83628247  0.15644611  0.50409629     0.14500
H1852       H  0.81181977  0.98158638  0.48885701     0.14500
C1853       C  0.86166452  0.02269623  0.46196301     0.36100
C1854       C  0.78557448  0.11547689  0.53061535     0.36000
N1855       N  0.87642932  0.00261733  0.44814704    -0.44200
N1856       N  0.77007551  0.13552960  0.54425477    -0.44200
loop_ 
_geom_bond_atom_site_label_1 
_geom_bond_atom_site_label_2 
_geom_bond_distance 
_geom_bond_site_symmetry_2 
_ccdc_geom_bond_type 
O1           C16   1.264       .  A
O1           Al9   1.903       .  S
C2           O12   1.259       .  A
C2            O3   1.268       .  A
C2         C1833   1.485       .  S
O3           Al5   1.935   1_455  S
O4            C6   1.259       .  A
O4           Al5   1.874       .  S
Al5          O13   1.892       .  S
Al5          O15   1.938       .  S
Al5          O14   1.774       .  S
C6           O19   1.266       .  A
C6         C1800   1.481       .  S
O7           C17   1.261       .  A
O7           Al9   1.896   1_455  S
O8           C21   1.258       .  A
O8          Al18   1.861       .  S
Al9          O22   1.942       .  S
Al9          O19   1.926       .  S
Al9          O14   1.777       .  S
O10          C17   1.263       .  A
O10         Al18   1.928   1_455  S
O11          C20   1.265       .  A
O11         Al18   1.930       .  S
O12         Al18   1.882   1_455  S
O13          C20   1.262       .  A
O14         Al18   1.774       .  S
O15          C16   1.266       .  A
C16        C1845   1.503       .  S
C17        C1824   1.491       .  S
C20        C1809   1.479       .  S
C21          O22   1.269       .  A
C21        C1785   1.480       .  S
O23          C38   1.262       .  A
O23         Al31   1.897       .  S
C24          O34   1.256       .  A
C24          O25   1.267       .  A
C24        C1761   1.490       .  S
O25         Al27   1.932       .  S
O26          C28   1.259       .  A
O26         Al27   1.872       .  S
Al27         O35   1.878       .  S
Al27         O37   1.927       .  S
Al27         O36   1.771       .  S
C28          O41   1.263       .  A
C28        C1740   1.474       .  S
O29          C39   1.263       .  A
O29         Al31   1.896       .  S
O30          C43   1.258       .  A
O30         Al40   1.862       .  S
Al31         O44   1.915       .  S
Al31         O41   1.917       .  S
Al31         O36   1.778       .  S
O32          C39   1.267       .  A
O32         Al40   1.935       .  S
O33          C42   1.269       .  A
O33         Al40   1.951       .  S
O34         Al40   1.876       .  S
O35          C42   1.259       .  A
O36         Al40   1.771       .  S
O37          C38   1.266       .  A
C38        C1776   1.493       .  S
C39        C1749   1.495       .  S
C42        C1812   1.493       .  S
C43          O44   1.263       .  A
C43        C1725   1.453       .  S
O45          C60   1.266       .  A
O45         Al53   1.924       .  S
C46          O56   1.265       .  A
C46          O47   1.259       .  A
C46        C1713   1.481       .  S
O47         Al49   1.887       .  S
O48          C50   1.263       .  A
O48         Al49   1.914       .  S
Al49         O57   1.935       .  S
Al49         O59   1.869       .  S
Al49         O58   1.773       .  S
C50          O63   1.259       .  A
C50        C1701   1.479       .  S
O51          C61   1.264       .  A
O51         Al53   1.909       .  S
O52          C65   1.261       .  A
O52         Al62   1.913       .  S
Al53         O66   1.906       .  S
Al53         O63   1.898       .  S
Al53         O58   1.781       .  S
O54          C61   1.261       .  A
O54         Al62   1.873       .  S
O55          C64   1.259       .  A
O55         Al62   1.881       .  S
O56         Al62   1.928       .  S
O57          C64   1.265       .  A
O58         Al62   1.772       .  S
O59          C60   1.260       .  A
C60        C1653   1.474       .  S
C61        C1668   1.468       .  S
C64        C1680   1.464       .  S
C65          O66   1.264       .  A
C65        C1692   1.493       .  S
O67          C82   1.270       .  A
O67         Al75   1.944       .  S
C68          O78   1.271       .  A
C68          O69   1.259       .  A
C68        C1641   1.496       .  S
O69         Al71   1.881       .  S
O70          C72   1.263       .  A
O70         Al71   1.921       .  S
Al71         O79   1.925       .  S
Al71         O81   1.877       .  S
Al71         O80   1.774       .  S
C72          O85   1.260       .  A
C72        C1629   1.480       .  S
O73          C83   1.266       .  A
O73         Al75   1.927       .  S
O74          C87   1.268       .  A
O74         Al84   1.937       .  S
Al75         O88   1.901       .  S
Al75         O85   1.896       .  S
Al75         O80   1.773       .  S
O76          C83   1.258       .  A
O76         Al84   1.874       .  S
O77          C86   1.259       .  A
O77         Al84   1.886       .  S
O78         Al84   1.948       .  S
O79          C86   1.264       .  A
O80         Al84   1.771       .  S
O81          C82   1.260       .  A
C82        C1605   1.472       .  S
C83        C1737   1.477       .  S
C86        C1677   1.478       .  S
C87          O88   1.263       .  A
C87        C1617   1.497       .  S
O89         C104   1.259       .  A
O89         Al97   1.890       .  S
C90         O100   1.257       .  A
C90          O91   1.269       .  A
C90        C1581   1.491       .  S
O91         Al93   1.945       .  S
O92          C94   1.258       .  A
O92         Al93   1.871       .  S
Al93        O101   1.882       .  S
Al93        O103   1.922       .  S
Al93        O102   1.771       .  S
C94         O107   1.272       .  A
C94        C1548   1.475       .  S
O95         C105   1.263       .  A
O95         Al97   1.900       .  S
O96         C109   1.258       .  A
O96        Al106   1.865       .  S
Al97        O110   1.945       .  S
Al97        O107   1.955       .  S
Al97        O102   1.776       .  S
O98         C105   1.266       .  A
O98        Al106   1.925       .  S
O99         C108   1.267       .  A
O99        Al106   1.937       .  S
O100       Al106   1.870       .  S
O101        C108   1.257       .  A
O102       Al106   1.765       .  S
O103        C104   1.264       .  A
C104       C1593   1.480       .  S
C105       C1572   1.493       .  S
C108       C1557   1.466       .  S
C109        O110   1.269       .  A
C109       C1533   1.476       .  S
O111        C126   1.262       .  A
O111       Al119   1.903       .  S
C112        O122   1.259       .  A
C112        O113   1.268       .  A
C112       C1509   1.485       .  S
O113       Al115   1.938       .  S
O114        C116   1.259       .  A
O114       Al115   1.866       .  S
Al115       O123   1.880       .  S
Al115       O125   1.933       .  S
Al115       O124   1.769       .  S
C116        O129   1.265       .  A
C116       C1665   1.468       .  S
O117        C127   1.259       .  A
O117       Al119   1.890       .  S
O118        C131   1.261       .  A
O118       Al128   1.870       .  S
Al119       O132   1.921       .  S
Al119       O129   1.914       .  S
Al119       O124   1.775       .  S
O120        C127   1.263       .  A
O120       Al128   1.922       .  S
O121        C130   1.267       .  A
O121       Al128   1.935       .  S
O122       Al128   1.884       .  S
O123        C130   1.260       .  A
O124       Al128   1.773       .  S
O125        C126   1.266       .  A
C126       C1521   1.497       .  S
C127       C1497   1.476       .  S
C130       C1560   1.475       .  S
C131        O132   1.266       .  A
C131       C1485   1.476       .  S
O133        C148   1.269       .  A
O133       Al141   1.947       .  S
C134        O144   1.264       .  A
C134        O135   1.257       .  A
C134       C1473   1.484       .  S
O135       Al137   1.868       .  S
O136        C138   1.268       .  A
O136       Al137   1.941       .  S
Al137       O145   1.937       .  S
Al137       O147   1.861       .  S
Al137       O146   1.770       .  S
C138        O151   1.262       .  A
C138       C1464   1.487       .  S
O139        C149   1.269       .  A
O139       Al141   1.949       .  S
O140        C153   1.266       .  A
O140       Al150   1.923       .  S
Al141       O154   1.892       .  S
Al141       O151   1.890       .  S
Al141       O146   1.774       .  S
O142        C149   1.257       .  A
O142       Al150   1.878       .  S
O143        C152   1.258       .  A
O143       Al150   1.876       .  S
O144       Al150   1.926       .  S
O145        C152   1.268       .  A
O146       Al150   1.772       .  S
O147        C148   1.257       .  A
C148       C1425   1.477       .  S
C149       C1545   1.475       .  S
C152       C1437   1.478       .  S
C153        O154   1.263       .  A
C153       C1452   1.487       .  S
O155        C170   1.266       .  A
O155       Al163   1.930       .  S
C156        O166   1.267       .  A
C156        O157   1.260       .  A
C156       C1413   1.496       .  S
O157       Al159   1.891   1_655  S
O158        C160   1.263       .  A
O158       Al159   1.919   1_655  S
Al159       O167   1.925       .  S
Al159       O169   1.886       .  S
Al159       O168   1.773       .  S
C160        O173   1.260   1_655  A
C160       C1404   1.481       .  S
O161        C171   1.264       .  A
O161       Al163   1.919       .  S
O162        C175   1.264       .  A
O162       Al172   1.920       .  S
Al163       O176   1.897       .  S
Al163       O173   1.888       .  S
Al163       O168   1.778       .  S
O164        C171   1.260       .  A
O164       Al172   1.878       .  S
O165        C174   1.260       .  A
O165       Al172   1.884       .  S
O166       Al172   1.935   1_655  S
O167        C174   1.264       .  A
O168       Al172   1.774       .  S
O169        C170   1.261       .  A
C170       C1380   1.472       .  S
C171       C1797   1.481       .  S
C174       C1440   1.480       .  S
C175        O176   1.263       .  A
C175       C1392   1.494       .  S
O177        C192   1.272       .  A
O177       Al185   1.962   1_545  S
C178        O188   1.266       .  A
C178        O179   1.259       .  A
C178       C1716   1.488       .  S
O179       Al181   1.881       .  S
O180        C182   1.267       .  A
O180       Al181   1.946   1_545  S
Al181       O189   1.940       .  S
Al181       O191   1.859   1_565  S
Al181       O190   1.770       .  S
C182        O195   1.261   1_545  A
C182       C1524   1.488       .  S
O183        C193   1.271       .  A
O183       Al185   1.952       .  S
O184        C197   1.267       .  A
O184       Al194   1.934       .  S
Al185       O198   1.892       .  S
Al185       O195   1.896       .  S
Al185       O190   1.773       .  S
O186        C193   1.257       .  A
O186       Al194   1.880       .  S
O187        C196   1.259       .  A
O187       Al194   1.882       .  S
O188       Al194   1.932       .  S
O189        C196   1.268       .  A
O190       Al194   1.777       .  S
O191        C192   1.257       .  A
C192       C1329   1.487       .  S
C193       C1344   1.476       .  S
C196       C1353   1.475       .  S
C197        O198   1.262       .  A
C197       C1368   1.493       .  S
O199        C214   1.267       .  A
O199       Al207   1.937   1_545  S
C200        O210   1.265       .  A
C200        O201   1.260       .  A
C200       C1644   1.489       .  S
O201       Al203   1.891   1_655  S
O202        C204   1.266       .  A
O202       Al203   1.931   1_645  S
Al203       O211   1.954       .  S
Al203       O213   1.878   1_565  S
Al203       O212   1.774       .  S
C204        O217   1.258   1_545  A
C204       C1773   1.481       .  S
O205        C215   1.265       .  A
O205       Al207   1.922       .  S
O206        C219   1.264       .  A
O206       Al216   1.920       .  S
Al207       O220   1.904       .  S
Al207       O217   1.888   1_455  S
Al207       O212   1.779       .  S
O208        C215   1.257       .  A
O208       Al216   1.871       .  S
O209        C218   1.259       .  A
O209       Al216   1.871       .  S
O210       Al216   1.930   1_655  S
O211        C218   1.270       .  A
O212       Al216   1.773       .  S
O213        C214   1.262       .  A
C214       C1296   1.477       .  S
C215       C1305   1.476   1_455  S
C218       C1356   1.495       .  S
C219        O220   1.264       .  A
C219       C1317   1.496       .  S
O221        C236   1.264       .  A
O221       Al229   1.902       .  S
C222        O232   1.260       .  A
C222        O223   1.263       .  A
C222       C1284   1.493       .  S
O223       Al225   1.924   1_455  S
O224        C226   1.261       .  A
O224       Al225   1.875       .  S
Al225       O233   1.875       .  S
Al225       O235   1.910       .  S
Al225       O234   1.770       .  S
C226        O239   1.264       .  A
C226       C1308   1.476       .  S
O227        C237   1.259   1_655  A
O227       Al229   1.885       .  S
O228        C241   1.258       .  A
O228       Al238   1.866       .  S
Al229       O242   1.917       .  S
Al229       O239   1.919       .  S
Al229       O234   1.779       .  S
O230        C237   1.266       .  A
O230       Al238   1.933   1_455  S
O231        C240   1.271       .  A
O231       Al238   1.955       .  S
O232       Al238   1.901   1_455  S
O233        C240   1.259       .  A
O234       Al238   1.775       .  S
O235        C236   1.261       .  A
C236       C1632   1.490       .  S
C237       C1272   1.478       .  S
C240       C1257   1.487       .  S
C241        O242   1.264       .  A
C241       C1728   1.467       .  S
O243        C258   1.264       .  A
O243       Al251   1.904       .  S
C244        O254   1.261       .  A
C244        O245   1.262       .  A
C244       C1245   1.490       .  S
O245       Al247   1.919       .  S
O246        C248   1.261       .  A
O246       Al247   1.878       .  S
Al247       O255   1.884       .  S
Al247       O257   1.904       .  S
Al247       O256   1.774       .  S
C248        O261   1.267       .  A
C248       C1221   1.485       .  S
O249        C259   1.261       .  A
O249       Al251   1.892       .  S
O250        C263   1.260       .  A
O250       Al260   1.877       .  S
Al251       O264   1.930       .  S
Al251       O261   1.936       .  S
Al251       O256   1.782       .  S
O252        C259   1.265       .  A
O252       Al260   1.931       .  S
O253        C262   1.268       .  A
O253       Al260   1.942       .  S
O254       Al260   1.893       .  S
O255        C262   1.260       .  A
O256       Al260   1.776       .  S
O257        C258   1.260       .  A
C258       C1401   1.490       .  S
C259       C1233   1.491       .  S
C262       C1260   1.486       .  S
C263        O264   1.267       .  A
C263       C1788   1.472       .  S
O265        C280   1.266   1_565  A
O265       Al273   1.916       .  S
C266        O276   1.258       .  A
C266        O267   1.260       .  A
C266       C1476   1.485       .  S
O267       Al269   1.904       .  S
O268        C270   1.262       .  A
O268       Al269   1.909       .  S
Al269       O277   1.910       .  S
Al269       O279   1.871   1_565  S
Al269       O278   1.790       .  S
C270        O283   1.255       .  A
C270       C1596   1.471   1_565  S
O271        C281   1.264       .  A
O271       Al273   1.917       .  S
O272        C285   1.264       .  A
O272       Al282   1.912       .  S
Al273       O286   1.879       .  S
Al273       O283   1.879       .  S
Al273       O278   1.788       .  S
O274        C281   1.253       .  A
O274       Al282   1.863       .  S
O275        C284   1.258       .  A
O275       Al282   1.888       .  S
O276       Al282   1.889       .  S
O277        C284   1.259       .  A
O278       Al282   1.787       .  S
O279        C280   1.258       .  A
C280       C1173   1.485       .  S
C281       C1185   1.452       .  S
C284       C1197   1.485       .  S
C285        O286   1.257       .  A
C285       C1209   1.478       .  S
O287        C302   1.270       .  A
O287       Al295   1.943   1_545  S
C288        O298   1.268       .  A
C288        O289   1.261       .  A
C288       C1416   1.489       .  S
O289       Al291   1.893       .  S
O290        C292   1.267       .  A
O290       Al291   1.940   1_545  S
Al291       O299   1.955       .  S
Al291       O301   1.881   1_565  S
Al291       O300   1.778       .  S
C292        O305   1.262   1_545  A
C292       C1848   1.500       .  S
O293        C303   1.270       .  A
O293       Al295   1.940       .  S
O294        C307   1.265       .  A
O294       Al304   1.934       .  S
Al295       O308   1.906       .  S
Al295       O305   1.901       .  S
Al295       O300   1.773       .  S
O296        C303   1.257       .  A
O296       Al304   1.873       .  S
O297        C306   1.258       .  A
O297       Al304   1.866       .  S
O298       Al304   1.936       .  S
O299        C306   1.269       .  A
O300       Al304   1.774       .  S
O301        C302   1.262       .  A
C302       C1149   1.477       .  S
C303       C1224   1.485       .  S
C306       C1200   1.492       .  S
C307        O308   1.263       .  A
C307       C1161   1.502       .  S
O309        C324   1.264       .  A
O309       Al317   1.899       .  S
C310        O320   1.259       .  A
C310        O311   1.269       .  A
C310       C1137   1.495       .  S
O311       Al313   1.939       .  S
O312        C314   1.255       .  A
O312       Al313   1.874       .  S
Al313       O321   1.883       .  S
Al313       O323   1.938       .  S
Al313       O322   1.767       .  S
C314        O327   1.264       .  A
C314       C1188   1.457       .  S
O315        C325   1.259       .  A
O315       Al317   1.885       .  S
O316        C329   1.261       .  A
O316       Al326   1.869       .  S
Al317       O330   1.934       .  S
Al317       O327   1.920       .  S
Al317       O322   1.777       .  S
O318        C325   1.264       .  A
O318       Al326   1.923       .  S
O319        C328   1.268       .  A
O319       Al326   1.940       .  S
O320       Al326   1.888       .  S
O321        C328   1.260       .  A
O322       Al326   1.771       .  S
O323        C324   1.268       .  A
C324       C1461   1.498       .  S
C325       C1125   1.465       .  S
C328       C1113   1.488       .  S
C329        O330   1.267       .  A
C329       C1536   1.466       .  S
O331        C346   1.263       .  A
O331       Al339   1.900       .  S
C332        O342   1.259       .  A
C332        O333   1.265       .  A
C332       C1101   1.488       .  S
O333       Al335   1.923       .  S
O334        C336   1.259       .  A
O334       Al335   1.879       .  S
Al335       O343   1.882       .  S
Al335       O345   1.925       .  S
Al335       O344   1.774       .  S
C336        O349   1.267       .  A
C336       C1341   1.474       .  S
O337        C347   1.263       .  A
O337       Al339   1.899       .  S
O338        C351   1.258       .  A
O338       Al348   1.871       .  S
Al339       O352   1.928       .  S
Al339       O349   1.937       .  S
Al339       O344   1.783       .  S
O340        C347   1.266       .  A
O340       Al348   1.929       .  S
O341        C350   1.267       .  A
O341       Al348   1.937       .  S
O342       Al348   1.890       .  S
O343        C350   1.260       .  A
O344       Al348   1.774       .  S
O345        C346   1.265       .  A
C346       C1704   1.493       .  S
C347       C1092   1.495       .  S
C350       C1116   1.479       .  S
C351        O352   1.265       .  A
C351       C1488   1.467       .  S
O353        C368   1.266       .  A
O353       Al361   1.933       .  S
C354        O364   1.268       .  A
C354        O355   1.259       .  A
C354       C1077   1.492       .  S
O355       Al357   1.886       .  S
O356        C358   1.266       .  A
O356       Al357   1.927       .  S
Al357       O365   1.937       .  S
Al357       O367   1.869       .  S
Al357       O366   1.770       .  S
C358        O371   1.263       .  A
C358       C1068   1.494       .  S
O359        C369   1.265       .  A
O359       Al361   1.927       .  S
O360        C373   1.266       .  A
O360       Al370   1.921       .  S
Al361       O374   1.895       .  S
Al361       O371   1.896       .  S
Al361       O366   1.778       .  S
O362        C369   1.257       .  A
O362       Al370   1.871       .  S
O363        C372   1.256       .  A
O363       Al370   1.872       .  S
O364       Al370   1.934       .  S
O365        C372   1.267       .  A
O366       Al370   1.772       .  S
O367        C368   1.259       .  A
C368       C1656   1.465       .  S
C369       C1041   1.476       .  S
C372       C1053   1.478       .  S
C373        O374   1.262       .  A
C373       C1500   1.489       .  S
O375        C390   1.267       .  A
O375       Al383   1.931       .  S
C376        O386   1.266       .  A
C376        O377   1.258       .  A
C376       C1029   1.489       .  S
O377       Al379   1.881       .  S
O378        C380   1.265       .  A
O378       Al379   1.923       .  S
Al379       O387   1.938       .  S
Al379       O389   1.876       .  S
Al379       O388   1.777       .  S
C380        O393   1.262       .  A
C380       C1020   1.488       .  S
O381        C391   1.266       .  A
O381       Al383   1.935       .  S
O382        C395   1.266       .  A
O382       Al392   1.934       .  S
Al383       O396   1.903       .  S
Al383       O393   1.898       .  S
Al383       O388   1.779       .  S
O384        C391   1.257       .  A
O384       Al392   1.874       .  S
O385        C394   1.259       .  A
O385       Al392   1.874       .  S
O386       Al392   1.936       .  S
O387        C394   1.267       .  A
O388       Al392   1.773       .  S
O389        C390   1.260       .  A
C390       C1608   1.478       .  S
C391       C1005   1.466       .  S
C394       C1056   1.480       .  S
C395        O396   1.264       .  A
C395       C1752   1.497       .  S
O397        C412   1.264       .  A
O397       Al405   1.901       .  S
C398        O408   1.256       .  A
C398        O399   1.266       .  A
C398       C1836   1.487       .  S
O399       Al401   1.932       .  S
O400        C402   1.257       .  A
O400       Al401   1.870       .  S
Al401       O409   1.882       .  S
Al401       O411   1.928       .  S
Al401       O410   1.771       .  S
C402        O415   1.265       .  A
C402        C969   1.462       .  S
O403        C413   1.263       .  A
O403       Al405   1.900       .  S
O404        C417   1.258       .  A
O404       Al414   1.862   1_565  S
Al405       O418   1.931       .  S
Al405       O415   1.924       .  S
Al405       O410   1.782       .  S
O406        C413   1.265   1_565  A
O406       Al414   1.922   1_565  S
O407        C416   1.266       .  A
O407       Al414   1.933       .  S
O408       Al414   1.872       .  S
O409        C416   1.259       .  A
O410       Al414   1.769       .  S
O411        C412   1.267       .  A
C412        C993   1.492       .  S
C413       C1389   1.488   1_545  S
C416        C981   1.474       .  S
C417        O418   1.266   1_565  A
C417        C960   1.476       .  S
O419        C434   1.264       .  A
O419       Al427   1.903       .  S
C420        O430   1.258       .  A
C420        O421   1.267       .  A
C420       C1764   1.486       .  S
O421       Al423   1.932       .  S
O422        C424   1.257       .  A
O422       Al423   1.876       .  S
Al423       O431   1.881       .  S
Al423       O433   1.923       .  S
Al423       O432   1.774       .  S
C424        O437   1.267       .  A
C424       C1008   1.468       .  S
O425        C435   1.262       .  A
O425       Al427   1.903       .  S
O426        C439   1.259       .  A
O426       Al436   1.866   1_565  S
Al427       O440   1.940       .  S
Al427       O437   1.939       .  S
Al427       O432   1.778       .  S
O428        C435   1.267   1_565  A
O428       Al436   1.940   1_565  S
O429        C438   1.269       .  A
O429       Al436   1.952       .  S
O430       Al436   1.875       .  S
O431        C438   1.259       .  A
O432       Al436   1.774       .  S
O433        C434   1.265       .  A
C434        C948   1.492       .  S
C435       C1620   1.487   1_545  S
C438        C984   1.497       .  S
C439        O440   1.268   1_565  A
C439        C933   1.471       .  S
O441        C456   1.269       .  A
O441       Al449   1.941       .  S
C442        O452   1.266       .  A
C442        O443   1.257       .  A
C442        C921   1.487       .  S
O443       Al445   1.881   1_655  S
O444        C446   1.268       .  A
O444       Al445   1.942   1_655  S
Al445       O453   1.939       .  S
Al445       O455   1.865       .  S
Al445       O454   1.773       .  S
C446        O459   1.261   1_655  A
C446        C909   1.485       .  S
O447        C457   1.267       .  A
O447       Al449   1.941       .  S
O448        C461   1.265       .  A
O448       Al458   1.922       .  S
Al449       O462   1.902       .  S
Al449       O459   1.894       .  S
Al449       O454   1.780       .  S
O450        C457   1.259       .  A
O450       Al458   1.876       .  S
O451        C460   1.259       .  A
O451       Al458   1.882       .  S
O452       Al458   1.928   1_655  S
O453        C460   1.268       .  A
O454       Al458   1.770       .  S
O455        C456   1.255       .  A
C456       C1428   1.482       .  S
C457        C888   1.484       .  S
C460        C900   1.479       .  S
C461        O462   1.265       .  A
C461       C1569   1.493       .  S
O463        C478   1.267       .  A
O463       Al471   1.938       .  S
C464        O474   1.263       .  A
C464        O465   1.258       .  A
C464        C873   1.493       .  S
O465       Al467   1.890       .  S
O466        C468   1.270       .  A
O466       Al467   1.944       .  S
Al467       O475   1.961       .  S
Al467       O477   1.870       .  S
Al467       O476   1.770       .  S
C468        O481   1.260       .  A
C468        C864   1.486       .  S
O469        C479   1.267       .  A
O469       Al471   1.931       .  S
O470        C483   1.264       .  A
O470       Al480   1.922       .  S
Al471       O484   1.907       .  S
Al471       O481   1.889       .  S
Al471       O476   1.780       .  S
O472        C479   1.257       .  A
O472       Al480   1.867       .  S
O473        C482   1.259       .  A
O473       Al480   1.869       .  S
O474       Al480   1.931       .  S
O475        C482   1.274       .  A
O476       Al480   1.772       .  S
O477        C478   1.259       .  A
C478       C1377   1.481       .  S
C479        C972   1.461       .  S
C482        C897   1.494       .  S
C483        O484   1.266       .  A
C483       C1821   1.494       .  S
O485        C500   1.263       .  A
O485       Al493   1.901       .  S
C486        O496   1.258       .  A
C486        O487   1.266       .  A
C486       C1584   1.482       .  S
O487       Al489   1.932   1_455  S
O488        C490   1.261       .  A
O488       Al489   1.882       .  S
Al489       O497   1.880       .  S
Al489       O499   1.909       .  S
Al489       O498   1.773       .  S
C490        O503   1.268       .  A
C490        C885   1.482       .  S
O491        C501   1.258   1_545  A
O491       Al493   1.885   1_455  S
O492        C505   1.261       .  A
O492       Al502   1.867   1_565  S
Al493       O506   1.940   1_545  S
Al493       O503   1.929       .  S
Al493       O498   1.777       .  S
O494        C501   1.262       .  A
O494       Al502   1.911   1_465  S
O495        C504   1.267       .  A
O495       Al502   1.937       .  S
O496       Al502   1.882   1_455  S
O497        C504   1.258       .  A
O498       Al502   1.775       .  S
O499        C500   1.260       .  A
C500        C849   1.489       .  S
C501       C1449   1.471       .  S
C504        C837   1.472       .  S
C505        O506   1.268       .  A
C505        C828   1.487       .  S
O507        C522   1.264       .  A
O507       Al515   1.901       .  S
C508        O518   1.259       .  A
C508        O509   1.270       .  A
C508       C1512   1.488       .  S
O509       Al511   1.943       .  S
O510        C512   1.261       .  A
O510       Al511   1.875       .  S
Al511       O519   1.890       .  S
Al511       O521   1.932       .  S
Al511       O520   1.769       .  S
C512        O525   1.266       .  A
C512       C1044   1.476       .  S
O513        C523   1.261   1_545  A
O513       Al515   1.898       .  S
O514        C527   1.258       .  A
O514       Al524   1.855   1_565  S
Al515       O528   1.940   1_545  S
Al515       O525   1.924       .  S
Al515       O520   1.775       .  S
O516        C523   1.266       .  A
O516       Al524   1.936   1_565  S
O517        C526   1.267       .  A
O517       Al524   1.941       .  S
O518       Al524   1.879       .  S
O519        C526   1.259       .  A
O520       Al524   1.771       .  S
O521        C522   1.265       .  A
C522        C816   1.498       .  S
C523       C1689   1.484       .  S
C526        C840   1.474       .  S
C527        O528   1.268       .  A
C527        C801   1.479       .  S
O529        C544   1.261       .  A
O529       Al537   1.899       .  S
C530        O540   1.258       .  A
C530        O531   1.267       .  A
C530       C1104   1.483       .  S
O531       Al533   1.939   1_455  S
O532        C534   1.258       .  A
O532       Al533   1.861       .  S
Al533       O541   1.873       .  S
Al533       O543   1.930       .  S
Al533       O542   1.770       .  S
C534        O547   1.268       .  A
C534        C777   1.469       .  S
O535        C545   1.259   1_655  A
O535       Al537   1.892       .  S
O536        C549   1.257       .  A
O536       Al546   1.853       .  S
Al537       O550   1.933       .  S
Al537       O547   1.930       .  S
Al537       O542   1.776       .  S
O538        C545   1.266       .  A
O538       Al546   1.930   1_455  S
O539        C548   1.269       .  A
O539       Al546   1.949       .  S
O540       Al546   1.879   1_455  S
O541        C548   1.258       .  A
O542       Al546   1.771       .  S
O543        C544   1.264       .  A
C544       C1065   1.491       .  S
C545       C1365   1.481       .  S
C548        C789   1.476       .  S
C549        O550   1.267       .  A
C549        C804   1.470       .  S
O551        C566   1.257       .  A
O551       Al559   1.891       .  S
C552        O562   1.259       .  A
C552        O553   1.272       .  A
C552       C1140   1.497       .  S
O553       Al555   1.960       .  S
O554        C556   1.258       .  A
O554       Al555   1.857       .  S
Al555       O563   1.885       .  S
Al555       O565   1.932       .  S
Al555       O564   1.770       .  S
C556        O569   1.272       .  A
C556        C765   1.477       .  S
O557        C567   1.258       .  A
O557       Al559   1.892       .  S
O558        C571   1.258       .  A
O558       Al568   1.855       .  S
Al559       O572   1.953       .  S
Al559       O569   1.945       .  S
Al559       O564   1.776       .  S
O560        C567   1.262       .  A
O560       Al568   1.913       .  S
O561        C570   1.267       .  A
O561       Al568   1.940       .  S
O562       Al568   1.879       .  S
O563        C570   1.259       .  A
O564       Al568   1.767       .  S
O565        C566   1.266       .  A
C566        C912   1.495       .  S
C567       C1212   1.483       .  S
C570        C792   1.470       .  S
C571        O572   1.273       .  A
C571        C825   1.486       .  S
O573        C588   1.271       .  A
O573       Al581   1.948       .  S
C574        O584   1.270       .  A
C574        O575   1.257       .  A
C574       C1080   1.495       .  S
O575       Al577   1.874   1_655  S
O576        C578   1.265       .  A
O576       Al577   1.929   1_655  S
Al577       O585   1.943       .  S
Al577       O587   1.868       .  S
Al577       O586   1.768       .  S
C578        O591   1.260   1_655  A
C578        C813   1.485       .  S
O579        C589   1.267       .  A
O579       Al581   1.930       .  S
O580        C593   1.265       .  A
O580       Al590   1.933       .  S
Al581       O594   1.901       .  S
Al581       O591   1.902       .  S
Al581       O586   1.776       .  S
O582        C589   1.258       .  A
O582       Al590   1.858       .  S
O583        C592   1.258       .  A
O583       Al590   1.882       .  S
O584       Al590   1.953   1_655  S
O585        C592   1.267       .  A
O586       Al590   1.774       .  S
O587        C588   1.258       .  A
C588       C1332   1.491       .  S
C589        C780   1.469       .  S
C592        C756   1.470       .  S
C593        O594   1.264       .  A
C593       C1089   1.496       .  S
O595        C610   1.268       .  A
O595       Al603   1.946       .  S
C596        O606   1.267       .  A
C596        O597   1.258       .  A
C596       C1032   1.491       .  S
O597       Al599   1.888       .  S
O598        C600   1.264       .  A
O598       Al599   1.913       .  S
Al599       O607   1.939       .  S
Al599       O609   1.874       .  S
Al599       O608   1.769       .  S
C600        O613   1.263       .  A
C600        C945   1.490       .  S
O601        C611   1.271       .  A
O601       Al603   1.948       .  S
O602        C615   1.267       .  A
O602       Al612   1.932       .  S
Al603       O616   1.894       .  S
Al603       O613   1.898       .  S
Al603       O608   1.781       .  S
O604        C611   1.259       .  A
O604       Al612   1.878       .  S
O605        C614   1.260       .  A
O605       Al612   1.881       .  S
O606       Al612   1.938       .  S
O607        C614   1.267       .  A
O608       Al612   1.772       .  S
O609        C610   1.260       .  A
C610       C1293   1.489       .  S
C611        C741   1.473       .  S
C614        C753   1.484       .  S
C615        O616   1.260       .  A
C615       C1269   1.491       .  S
O617        C632   1.263       .  A
O617       Al625   1.897       .  S
C618        O628   1.261       .  A
C618        O619   1.264       .  A
C618       C1281   1.494       .  S
O619       Al621   1.928       .  S
O620        C622   1.258       .  A
O620       Al621   1.874       .  S
Al621       O629   1.880       .  S
Al621       O631   1.923       .  S
Al621       O630   1.772       .  S
C622        O635   1.271       .  A
C622        C744   1.470       .  S
O623        C633   1.262       .  A
O623       Al625   1.894       .  S
O624        C637   1.259       .  A
O624       Al634   1.867       .  S
Al625       O638   1.945       .  S
Al625       O635   1.949       .  S
Al625       O630   1.774       .  S
O626        C633   1.267       .  A
O626       Al634   1.936       .  S
O627        C636   1.272       .  A
O627       Al634   1.953       .  S
O628       Al634   1.897       .  S
O629        C636   1.261       .  A
O630       Al634   1.768       .  S
O631        C632   1.263       .  A
C632       C1017   1.491       .  S
C633       C1320   1.489       .  S
C636        C729   1.492       .  S
C637        O638   1.270       .  A
C637        C936   1.482       .  S
O639        C654   1.261       .  A
O639       Al647   1.896       .  S
C640        O650   1.263       .  A
C640        O641   1.263       .  A
C640       C1248   1.485       .  S
O641       Al643   1.922       .  S
O642        C644   1.259       .  A
O642       Al643   1.881       .  S
Al643       O651   1.886       .  S
Al643       O653   1.917       .  S
Al643       O652   1.779       .  S
C644        O657   1.266       .  A
C644        C717   1.481       .  S
O645        C655   1.261       .  A
O645       Al647   1.899       .  S
O646        C659   1.262       .  A
O646       Al656   1.876       .  S
Al647       O660   1.929       .  S
Al647       O657   1.927       .  S
Al647       O652   1.778       .  S
O648        C655   1.266       .  A
O648       Al656   1.941       .  S
O649        C658   1.268       .  A
O649       Al656   1.945       .  S
O650       Al656   1.894       .  S
O651        C658   1.261       .  A
O652       Al656   1.777       .  S
O653        C654   1.263       .  A
C654        C861   1.494       .  S
C655       C1164   1.495       .  S
C658        C732   1.483       .  S
C659        O660   1.267       .  A
C659        C957   1.470       .  S
O661        C676   1.266       .  A
O661       Al669   1.935       .  S
C662        O672   1.264       .  A
C662        O663   1.258       .  A
C662        C924   1.488       .  S
O663       Al665   1.887       .  S
O664        C666   1.265       .  A
O664       Al665   1.921       .  S
Al665       O673   1.948       .  S
Al665       O675   1.875       .  S
Al665       O674   1.770       .  S
C666        O679   1.262       .  A
C666        C852   1.486       .  S
O667        C677   1.267       .  A
O667       Al669   1.937       .  S
O668        C681   1.263       .  A
O668       Al678   1.908       .  S
Al669       O682   1.899       .  S
Al669       O679   1.891       .  S
Al669       O674   1.782       .  S
O670        C677   1.257       .  A
O670       Al678   1.870       .  S
O671        C680   1.257       .  A
O671       Al678   1.871       .  S
O672       Al678   1.922       .  S
O673        C680   1.269       .  A
O674       Al678   1.771       .  S
O675        C676   1.261       .  A
C676       C1176   1.471       .  S
C677        C768   1.479       .  S
C680        C705   1.481       .  S
C681        O682   1.263       .  A
C681       C1128   1.478       .  S
O683        C698   1.271       .  A
O683       Al691   1.957       .  S
C684        O694   1.266       .  A
C684        O685   1.259       .  A
C684        C876   1.490       .  S
O685       Al687   1.879       .  S
O686        C688   1.264       .  A
O686       Al687   1.923       .  S
Al687       O695   1.934       .  S
Al687       O697   1.870       .  S
Al687       O696   1.776       .  S
C688        O701   1.259       .  A
C688        C996   1.477       .  S
O689        C699   1.268       .  A
O689       Al691   1.937       .  S
O690        C703   1.264       .  A
O690       Al700   1.919       .  S
Al691       O704   1.904       .  S
Al691       O701   1.896       .  S
Al691       O696   1.779       .  S
O692        C699   1.259       .  A
O692       Al700   1.881       .  S
O693        C702   1.260       .  A
O693       Al700   1.885       .  S
O694       Al700   1.936       .  S
O695        C702   1.266       .  A
O696       Al700   1.775       .  S
O697        C698   1.259       .  A
C698       C1152   1.489       .  S
C699        C720   1.483       .  S
C702        C708   1.486       .  S
C703        O704   1.265       .  A
C703       C1236   1.496       .  S
C705        C706   1.403       .  A
C705        C710   1.415       .  A
C706        C707   1.405       .  A
C706        H711   1.086       .  S
C707        C708   1.417       .  A
C707        C714   1.443       .  S
C708        C709   1.403       .  A
C709        C710   1.396       .  A
C709        H712   1.086       .  S
C710        C713   1.446       .  S
C713        N715   1.157       .  T
C714        N716   1.157       .  T
C717        C718   1.404       .  A
C717        C722   1.415       .  A
C718        C719   1.399       .  A
C718        H723   1.083       .  S
C719        C720   1.415       .  A
C719        C726   1.443       .  S
C720        C721   1.405       .  A
C721        C722   1.399       .  A
C721        H724   1.085       .  S
C722        C725   1.444       .  S
C725        N727   1.157       .  T
C726        N728   1.157       .  T
C729        C730   1.408       .  A
C729        C734   1.417       .  A
C730        C731   1.399       .  A
C730        H735   1.083       .  S
C731        C732   1.409       .  A
C731        C738   1.445       .  S
C732        C733   1.403       .  A
C733        C734   1.407       .  A
C733        H736   1.081       .  S
C734        C737   1.444       .  S
C737        N739   1.157       .  T
C738        N740   1.157       .  T
C741        C742   1.404       .  A
C741        C746   1.412       .  A
C742        C743   1.398       .  A
C742        H747   1.086       .  S
C743        C744   1.410       .  A
C743        C750   1.444       .  S
C744        C745   1.403       .  A
C745        C746   1.398       .  A
C745        H748   1.087       .  S
C746        C749   1.445       .  S
C749        N751   1.157       .  T
C750        N752   1.157       .  T
C753        C754   1.406       .  A
C753        C758   1.417       .  A
C754        C755   1.403       .  A
C754        H759   1.085       .  S
C755        C756   1.410       .  A
C755        C762   1.445       .  S
C756        C757   1.398       .  A
C757        C758   1.400       .  A
C757        H760   1.085       .  S
C758        C761   1.445       .  S
C761        N763   1.157       .  T
C762        N764   1.157       .  T
C765        C766   1.407       .  A
C765        C770   1.411       .  A
C766        C767   1.396       .  A
C766        H771   1.086       .  S
C767        C768   1.415       .  A
C767        C774   1.446       .  S
C768        C769   1.407       .  A
C769        C770   1.396       .  A
C769        H772   1.085       .  S
C770        C773   1.444       .  S
C773        N775   1.157       .  T
C774        N776   1.158       .  T
C777        C778   1.405   1_655  A
C777        C782   1.412   1_556  A
C778        C779   1.393       .  A
C778        H783   1.086       .  S
C779        C780   1.412   1_556  A
C779        C786   1.444       .  S
C780        C781   1.403   1_455  A
C781        C782   1.391       .  A
C781        H784   1.087       .  S
C782        C785   1.443       .  S
C785        N787   1.157       .  T
C786        N788   1.157       .  T
C789        C790   1.403       .  A
C789        C794   1.415       .  A
C790        C791   1.402       .  A
C790        H795   1.084       .  S
C791        C792   1.412       .  A
C791        C798   1.445       .  S
C792        C793   1.398       .  A
C793        C794   1.398       .  A
C793        H796   1.085       .  S
C794        C797   1.445       .  S
C797        N799   1.157       .  T
C798        N800   1.157       .  T
C801        C802   1.406       .  A
C801        C806   1.414       .  A
C802        C803   1.385       .  A
C802        H807   1.084       .  S
C803        C804   1.410       .  A
C803        C810   1.447       .  S
C804        C805   1.406       .  A
C805        C806   1.402       .  A
C805        H808   1.084       .  S
C806        C809   1.443       .  S
C809        N811   1.157   1_556  T
C810        N812   1.157       .  T
C813        C814   1.403       .  A
C813        C818   1.412   1_554  A
C814        C815   1.400   1_554  A
C814        H819   1.084       .  S
C815        C816   1.416       .  A
C815        C822   1.443       .  S
C816        C817   1.413       .  A
C817        C818   1.407       .  A
C817        H820   1.084       .  S
C818        C821   1.445       .  S
C821        N823   1.158       .  T
C822        N824   1.157       .  T
C825        C826   1.407       .  A
C825        C830   1.418       .  A
C826        C827   1.406       .  A
C826        H831   1.084       .  S
C827        C828   1.417       .  A
C827        C834   1.444       .  S
C828        C829   1.403       .  A
C829        C830   1.389       .  A
C829        H832   1.085       .  S
C830        C833   1.447       .  S
C833        N835   1.157       .  T
C834        N836   1.157       .  T
C837        C838   1.404       .  A
C837        C842   1.408       .  A
C838        C839   1.400       .  A
C838        H843   1.086       .  S
C839        C840   1.409       .  A
C839        C846   1.444       .  S
C840        C841   1.405       .  A
C841        C842   1.402       .  A
C841        H844   1.085       .  S
C842        C845   1.445       .  S
C845        N847   1.157   1_655  T
C846        N848   1.157       .  T
C849        C850   1.405       .  A
C849        C854   1.419       .  A
C850        C851   1.399       .  A
C850        H855   1.086       .  S
C851        C852   1.417       .  A
C851        C858   1.445       .  S
C852        C853   1.403       .  A
C853        C854   1.399       .  A
C853        H856   1.086       .  S
C854        C857   1.445       .  S
C857        N859   1.157       .  T
C858        N860   1.157       .  T
C861        C862   1.410       .  A
C861        C866   1.417       .  A
C862        C863   1.401       .  A
C862        H867   1.084       .  S
C863        C864   1.413       .  A
C863        C870   1.445       .  S
C864        C865   1.405       .  A
C865        C866   1.403       .  A
C865        H868   1.085       .  S
C866        C869   1.444       .  S
C869        N871   1.157       .  T
C870        N872   1.157       .  T
C873        C874   1.408       .  A
C873        C878   1.417       .  A
C874        C875   1.402       .  A
C874        H879   1.084       .  S
C875        C876   1.415       .  A
C875        C882   1.444       .  S
C876        C877   1.406       .  A
C877        C878   1.401       .  A
C877        H880   1.085       .  S
C878        C881   1.444       .  S
C881        N883   1.157       .  T
C882        N884   1.157       .  T
C885        C886   1.406   1_655  A
C885        C890   1.414       .  A
C886        C887   1.401       .  A
C886        H891   1.085       .  S
C887        C888   1.416       .  A
C887        C894   1.444       .  S
C888        C889   1.406   1_455  A
C889        C890   1.395       .  A
C889        H892   1.084       .  S
C890        C893   1.445       .  S
C893        N895   1.157       .  T
C894        N896   1.157       .  T
C897        C898   1.411       .  A
C897        C902   1.416       .  A
C898        C899   1.399       .  A
C898        H903   1.086       .  S
C899        C900   1.409       .  A
C899        C906   1.445       .  S
C900        C901   1.403       .  A
C901        C902   1.406       .  A
C901        H904   1.085       .  S
C902        C905   1.442       .  S
C905        N907   1.157       .  T
C906        N908   1.158       .  T
C909        C910   1.404       .  A
C909        C914   1.412       .  A
C910        C911   1.404       .  A
C910        H915   1.088       .  S
C911        C912   1.420       .  A
C911        C918   1.445       .  S
C912        C913   1.408       .  A
C913        C914   1.400       .  A
C913        H916   1.085       .  S
C914        C917   1.444       .  S
C917        N919   1.157       .  T
C918        N920   1.158       .  T
C921        C922   1.405       .  A
C921        C926   1.417       .  A
C922        C923   1.398       .  A
C922        H927   1.086       .  S
C923        C924   1.417       .  A
C923        C930   1.444       .  S
C924        C925   1.407       .  A
C925        C926   1.400       .  A
C925        H928   1.086       .  S
C926        C929   1.445       .  S
C929        N931   1.158       .  T
C930        N932   1.157       .  T
C933        C934   1.406       .  A
C933        C938   1.406       .  A
C934        C935   1.405       .  A
C934        H939   1.084       .  S
C935        C936   1.413       .  A
C935        C942   1.444       .  S
C936        C937   1.408       .  A
C937        C938   1.391       .  A
C937        H940   1.083       .  S
C938        C941   1.446       .  S
C941        N943   1.157       .  T
C942        N944   1.157       .  T
C945        C946   1.405       .  A
C945        C950   1.418       .  A
C946        C947   1.403       .  A
C946        H951   1.083       .  S
C947        C948   1.417       .  A
C947        C954   1.444       .  S
C948        C949   1.405       .  A
C949        C950   1.400       .  A
C949        H952   1.084       .  S
C950        C953   1.446       .  S
C953        N955   1.158       .  T
C954        N956   1.157       .  T
C957        C958   1.405       .  A
C957        C962   1.406       .  A
C958        C959   1.402       .  A
C958        H963   1.085       .  S
C959        C960   1.413       .  A
C959        C966   1.444       .  S
C960        C961   1.405       .  A
C961        C962   1.388       .  A
C961        H964   1.086       .  S
C962        C965   1.443       .  S
C965        N967   1.156       .  T
C966        N968   1.157       .  T
C969        C970   1.404       .  A
C969        C974   1.408       .  A
C970        C971   1.394       .  A
C970        H975   1.084       .  S
C971        C972   1.407       .  A
C971        C978   1.445       .  S
C972        C973   1.404       .  A
C973        C974   1.394       .  A
C973        H976   1.085       .  S
C974        C977   1.445       .  S
C977        N979   1.157       .  T
C978        N980   1.157       .  T
C981        C982   1.401       .  A
C981        C986   1.406       .  A
C982        C983   1.406       .  A
C982        H987   1.086       .  S
C983        C984   1.420       .  A
C983        C990   1.443   1_545  S
C984        C985   1.411       .  A
C985        C986   1.398       .  A
C985        H988   1.084       .  S
C986        C989   1.446       .  S
C989        N991   1.157       .  T
C990        N992   1.157       .  T
C993        C994   1.412       .  A
C993        C998   1.415       .  A
C994        C995   1.402       .  A
C994        H999   1.085       .  S
C995        C996   1.409       .  A
C995       C1002   1.445       .  S
C996        C997   1.402       .  A
C997        C998   1.399       .  A
C997       H1000   1.086       .  S
C998       C1001   1.443       .  S
C1001      N1003   1.157       .  T
C1002      N1004   1.158       .  T
C1005      C1006   1.403       .  A
C1005      C1010   1.408       .  A
C1006      C1007   1.398       .  A
C1006      H1011   1.086       .  S
C1007      C1008   1.410       .  A
C1007      C1014   1.444       .  S
C1008      C1009   1.405       .  A
C1009      C1010   1.399       .  A
C1009      H1012   1.085       .  S
C1010      C1013   1.445       .  S
C1013      N1015   1.157       .  T
C1014      N1016   1.157       .  T
C1017      C1018   1.405       .  A
C1017      C1022   1.419       .  A
C1018      C1019   1.398       .  A
C1018      H1023   1.085       .  S
C1019      C1020   1.416       .  A
C1019      C1026   1.445       .  S
C1020      C1021   1.405       .  A
C1021      C1022   1.402       .  A
C1021      H1024   1.086       .  S
C1022      C1025   1.444       .  S
C1025      N1027   1.157       .  T
C1026      N1028   1.157       .  T
C1029      C1030   1.406       .  A
C1029      C1034   1.415       .  A
C1030      C1031   1.403       .  A
C1030      H1035   1.084       .  S
C1031      C1032   1.417       .  A
C1031      C1038   1.444       .  S
C1032      C1033   1.405       .  A
C1033      C1034   1.401       .  A
C1033      H1036   1.082       .  S
C1034      C1037   1.444       .  S
C1037      N1039   1.157       .  T
C1038      N1040   1.157       .  T
C1041      C1042   1.404       .  A
C1041      C1046   1.415   1_554  A
C1042      C1043   1.396       .  A
C1042      H1047   1.086       .  S
C1043      C1044   1.416   1_554  A
C1043      C1050   1.446       .  S
C1044      C1045   1.403       .  A
C1045      C1046   1.394       .  A
C1045      H1048   1.085       .  S
C1046      C1049   1.444       .  S
C1049      N1051   1.157       .  T
C1050      N1052   1.158       .  T
C1053      C1054   1.404       .  A
C1053      C1058   1.413       .  A
C1054      C1055   1.404       .  A
C1054      H1059   1.087       .  S
C1055      C1056   1.414       .  A
C1055      C1062   1.444       .  S
C1056      C1057   1.403       .  A
C1057      C1058   1.394       .  A
C1057      H1060   1.087       .  S
C1058      C1061   1.445       .  S
C1061      N1063   1.157       .  T
C1062      N1064   1.157       .  T
C1065      C1066   1.406       .  A
C1065      C1070   1.414       .  A
C1066      C1067   1.401   1_556  A
C1066      H1071   1.083   1_556  S
C1067      C1068   1.418       .  A
C1067      C1074   1.445       .  S
C1068      C1069   1.408   1_554  A
C1069      C1070   1.403       .  A
C1069      H1072   1.084       .  S
C1070      C1073   1.444       .  S
C1073      N1075   1.157       .  T
C1074      N1076   1.157       .  T
C1077      C1078   1.404       .  A
C1077      C1082   1.418       .  A
C1078      C1079   1.399       .  A
C1078      H1083   1.085       .  S
C1079      C1080   1.419       .  A
C1079      C1086   1.445       .  S
C1080      C1081   1.407       .  A
C1081      C1082   1.406       .  A
C1081      H1084   1.084       .  S
C1082      C1085   1.445       .  S
C1085      N1087   1.157       .  T
C1086      N1088   1.157       .  T
C1089      C1090   1.407       .  A
C1089      C1094   1.418       .  A
C1090      C1091   1.402   1_554  A
C1090      H1095   1.084   1_554  S
C1091      C1092   1.417       .  A
C1091      C1098   1.445       .  S
C1092      C1093   1.407   1_556  A
C1093      C1094   1.404       .  A
C1093      H1096   1.084       .  S
C1094      C1097   1.444       .  S
C1097      N1099   1.157       .  T
C1098      N1100   1.157       .  T
C1101      C1102   1.406       .  A
C1101      C1106   1.417       .  A
C1102      C1103   1.397       .  A
C1102      H1107   1.085       .  S
C1103      C1104   1.414       .  A
C1103      C1110   1.444       .  S
C1104      C1105   1.405       .  A
C1105      C1106   1.402       .  A
C1105      H1108   1.086       .  S
C1106      C1109   1.444       .  S
C1109      N1111   1.157       .  T
C1110      N1112   1.157       .  T
C1113      C1114   1.407       .  A
C1113      C1118   1.417       .  A
C1114      C1115   1.398       .  A
C1114      H1119   1.085       .  S
C1115      C1116   1.411       .  A
C1115      C1122   1.445       .  S
C1116      C1117   1.401       .  A
C1117      C1118   1.403       .  A
C1117      H1120   1.086       .  S
C1118      C1121   1.444       .  S
C1121      N1123   1.157       .  T
C1122      N1124   1.157       .  T
C1125      C1126   1.403       .  A
C1125      C1130   1.404       .  A
C1126      C1127   1.400       .  A
C1126      H1131   1.084       .  S
C1127      C1128   1.411       .  A
C1127      C1134   1.443       .  S
C1128      C1129   1.409       .  A
C1129      C1130   1.394       .  A
C1129      H1132   1.084       .  S
C1130      C1133   1.445       .  S
C1133      N1135   1.157       .  T
C1134      N1136   1.157       .  T
C1137      C1138   1.404       .  A
C1137      C1142   1.418       .  A
C1138      C1139   1.402       .  A
C1138      H1143   1.085       .  S
C1139      C1140   1.419       .  A
C1139      C1146   1.445       .  S
C1140      C1141   1.407       .  A
C1141      C1142   1.407       .  A
C1141      H1144   1.084       .  S
C1142      C1145   1.444       .  S
C1145      N1147   1.157       .  T
C1146      N1148   1.157       .  T
C1149      C1150   1.405       .  A
C1149      C1154   1.408       .  A
C1150      C1151   1.405       .  A
C1150      H1155   1.085       .  S
C1151      C1152   1.414       .  A
C1151      C1158   1.442       .  S
C1152      C1153   1.409       .  A
C1153      C1154   1.396       .  A
C1153      H1156   1.084       .  S
C1154      C1157   1.446       .  S
C1157      N1159   1.157       .  T
C1158      N1160   1.157       .  T
C1161      C1162   1.409       .  A
C1161      C1166   1.420       .  A
C1162      C1163   1.406       .  A
C1162      H1167   1.085       .  S
C1163      C1164   1.416       .  A
C1163      C1170   1.445       .  S
C1164      C1165   1.404       .  A
C1165      C1166   1.405       .  A
C1165      H1168   1.084       .  S
C1166      C1169   1.444       .  S
C1169      N1171   1.157       .  T
C1170      N1172   1.157       .  T
C1173      C1174   1.410       .  A
C1173      C1178   1.414       .  A
C1174      C1175   1.389       .  A
C1174      H1179   1.085       .  S
C1175      C1176   1.404       .  A
C1175      C1182   1.446       .  S
C1176      C1177   1.407       .  A
C1177      C1178   1.406       .  A
C1177      H1180   1.086       .  S
C1178      C1181   1.444       .  S
C1181      N1183   1.158       .  T
C1182      N1184   1.157       .  T
C1185      C1186   1.405       .  A
C1185      C1190   1.405       .  A
C1186      C1187   1.397       .  A
C1186      H1191   1.086       .  S
C1187      C1188   1.406       .  A
C1187      C1194   1.444       .  S
C1188      C1189   1.401       .  A
C1189      C1190   1.393       .  A
C1189      H1192   1.085       .  S
C1190      C1193   1.444       .  S
C1193      N1195   1.157       .  T
C1194      N1196   1.157       .  T
C1197      C1198   1.408       .  A
C1197      C1202   1.412       .  A
C1198      C1199   1.410       .  A
C1198      H1203   1.083   1_565  S
C1199      C1200   1.416       .  A
C1199      C1206   1.443   1_565  S
C1200      C1201   1.406       .  A
C1201      C1202   1.391       .  A
C1201      H1204   1.084       .  S
C1202      C1205   1.446       .  S
C1205      N1207   1.157       .  T
C1206      N1208   1.157       .  T
C1209      C1210   1.404       .  A
C1209      C1214   1.413       .  A
C1210      C1211   1.396       .  A
C1210      H1215   1.086       .  S
C1211      C1212   1.415       .  A
C1211      C1218   1.446       .  S
C1212      C1213   1.406       .  A
C1213      C1214   1.403       .  A
C1213      H1216   1.085       .  S
C1214      C1217   1.443       .  S
C1217      N1219   1.157       .  T
C1218      N1220   1.158       .  T
C1221      C1222   1.404       .  A
C1221      C1226   1.416       .  A
C1222      C1223   1.395       .  A
C1222      H1227   1.085       .  S
C1223      C1224   1.414       .  A
C1223      C1230   1.444       .  S
C1224      C1225   1.409       .  A
C1225      C1226   1.403       .  A
C1225      H1228   1.084       .  S
C1226      C1229   1.445       .  S
C1229      N1231   1.158       .  T
C1230      N1232   1.157       .  T
C1233      C1234   1.403       .  A
C1233      C1238   1.417       .  A
C1234      C1235   1.400       .  A
C1234      H1239   1.084       .  S
C1235      C1236   1.421       .  A
C1235      C1242   1.444       .  S
C1236      C1237   1.408       .  A
C1237      C1238   1.404       .  A
C1237      H1240   1.085       .  S
C1238      C1241   1.444       .  S
C1241      N1243   1.157       .  T
C1242      N1244   1.157       .  T
C1245      C1246   1.406       .  A
C1245      C1250   1.418       .  A
C1246      C1247   1.399       .  A
C1246      H1251   1.084       .  S
C1247      C1248   1.417       .  A
C1247      C1254   1.445       .  S
C1248      C1249   1.403       .  A
C1249      C1250   1.400       .  A
C1249      H1252   1.085       .  S
C1250      C1253   1.444       .  S
C1253      N1255   1.157       .  T
C1254      N1256   1.158       .  T
C1257      C1258   1.405       .  A
C1257      C1262   1.415       .  A
C1258      C1259   1.398       .  A
C1258      H1263   1.085       .  S
C1259      C1260   1.412       .  A
C1259      C1266   1.445       .  S
C1260      C1261   1.406       .  A
C1261      C1262   1.407       .  A
C1261      H1264   1.085       .  S
C1262      C1265   1.443       .  S
C1265      N1267   1.157       .  T
C1266      N1268   1.157       .  T
C1269      C1270   1.409       .  A
C1269      C1274   1.418       .  A
C1270      C1271   1.400       .  A
C1270      H1275   1.084       .  S
C1271      C1272   1.409       .  A
C1271      C1278   1.445       .  S
C1272      C1273   1.403       .  A
C1273      C1274   1.402       .  A
C1273      H1276   1.085       .  S
C1274      C1277   1.444       .  S
C1277      N1279   1.157       .  T
C1278      N1280   1.157       .  T
C1281      C1282   1.405       .  A
C1281      C1286   1.419       .  A
C1282      C1283   1.402       .  A
C1282      H1287   1.085       .  S
C1283      C1284   1.418       .  A
C1283      C1290   1.444       .  S
C1284      C1285   1.406       .  A
C1285      C1286   1.404       .  A
C1285      H1288   1.084       .  S
C1286      C1289   1.445       .  S
C1289      N1291   1.157       .  T
C1290      N1292   1.157       .  T
C1293      C1294   1.408       .  A
C1293      C1298   1.417       .  A
C1294      C1295   1.393       .  A
C1294      H1299   1.087       .  S
C1295      C1296   1.407       .  A
C1295      C1302   1.445       .  S
C1296      C1297   1.405       .  A
C1297      C1298   1.406       .  A
C1297      H1300   1.088       .  S
C1298      C1301   1.443       .  S
C1301      N1303   1.158       .  T
C1302      N1304   1.157       .  T
C1305      C1306   1.406       .  A
C1305      C1310   1.413   1_655  A
C1306      C1307   1.396       .  A
C1306      H1311   1.084       .  S
C1307      C1308   1.416       .  A
C1307      C1314   1.446       .  S
C1308      C1309   1.402   1_655  A
C1309      C1310   1.391       .  A
C1309      H1312   1.083       .  S
C1310      C1313   1.445       .  S
C1313      N1315   1.157       .  T
C1314      N1316   1.158       .  T
C1317      C1318   1.408       .  A
C1317      C1322   1.421       .  A
C1318      C1319   1.404       .  A
C1318      H1323   1.084       .  S
C1319      C1320   1.415       .  A
C1319      C1326   1.444       .  S
C1320      C1321   1.402       .  A
C1321      C1322   1.401       .  A
C1321      H1324   1.085       .  S
C1322      C1325   1.445       .  S
C1325      N1327   1.157       .  T
C1326      N1328   1.157       .  T
C1329      C1330   1.404       .  A
C1329      C1334   1.413       .  A
C1330      C1331   1.394       .  A
C1330      H1335   1.087       .  S
C1331      C1332   1.420       .  A
C1331      C1338   1.447       .  S
C1332      C1333   1.408       .  A
C1333      C1334   1.406       .  A
C1333      H1336   1.085       .  S
C1334      C1337   1.442       .  S
C1337      N1339   1.157   1_554  T
C1338      N1340   1.158       .  T
C1341      C1342   1.405   1_556  A
C1341      C1346   1.410       .  A
C1342      C1343   1.401       .  A
C1342      H1347   1.087       .  S
C1343      C1344   1.413       .  A
C1343      C1350   1.445       .  S
C1344      C1345   1.405   1_554  A
C1345      C1346   1.398       .  A
C1345      H1348   1.085       .  S
C1346      C1349   1.445       .  S
C1349      N1351   1.157       .  T
C1350      N1352   1.157       .  T
C1353      C1354   1.403       .  A
C1353      C1358   1.405       .  A
C1354      C1355   1.407       .  A
C1354      H1359   1.087   1_565  S
C1355      C1356   1.419       .  A
C1355      C1362   1.443   1_565  S
C1356      C1357   1.410       .  A
C1357      C1358   1.396       .  A
C1357      H1360   1.085       .  S
C1358      C1361   1.445       .  S
C1361      N1363   1.157       .  T
C1362      N1364   1.157       .  T
C1365      C1366   1.403       .  A
C1365      C1370   1.411   1_556  A
C1366      C1367   1.400   1_556  A
C1366      H1371   1.086       .  S
C1367      C1368   1.417       .  A
C1367      C1374   1.444       .  S
C1368      C1369   1.411       .  A
C1369      C1370   1.403       .  A
C1369      H1372   1.085       .  S
C1370      C1373   1.445       .  S
C1373      N1375   1.157       .  T
C1374      N1376   1.157       .  T
C1377      C1378   1.408       .  A
C1377      C1382   1.412       .  A
C1378      C1379   1.395       .  A
C1378      H1383   1.086       .  S
C1379      C1380   1.407       .  A
C1379      C1386   1.445       .  S
C1380      C1381   1.405       .  A
C1381      C1382   1.402       .  A
C1381      H1384   1.086       .  S
C1382      C1385   1.443       .  S
C1385      N1387   1.157       .  T
C1386      N1388   1.157       .  T
C1389      C1390   1.404       .  A
C1389      C1394   1.416       .  A
C1390      C1391   1.402       .  A
C1390      H1395   1.084   1_565  S
C1391      C1392   1.420       .  A
C1391      C1398   1.445       .  S
C1392      C1393   1.407       .  A
C1393      C1394   1.400       .  A
C1393      H1396   1.084       .  S
C1394      C1397   1.445       .  S
C1397      N1399   1.157       .  T
C1398      N1400   1.157   1_565  T
C1401      C1402   1.407       .  A
C1401      C1406   1.421       .  A
C1402      C1403   1.401       .  A
C1402      H1407   1.084       .  S
C1403      C1404   1.414       .  A
C1403      C1410   1.445       .  S
C1404      C1405   1.401       .  A
C1405      C1406   1.398       .  A
C1405      H1408   1.084       .  S
C1406      C1409   1.445       .  S
C1409      N1411   1.157       .  T
C1410      N1412   1.157   1_655  T
C1413      C1414   1.409       .  A
C1413      C1418   1.419       .  A
C1414      C1415   1.404       .  A
C1414      H1419   1.085       .  S
C1415      C1416   1.413       .  A
C1415      C1422   1.444       .  S
C1416      C1417   1.404       .  A
C1417      C1418   1.402       .  A
C1417      H1420   1.085       .  S
C1418      C1421   1.445       .  S
C1421      N1423   1.157       .  T
C1422      N1424   1.157   1_565  T
C1425      C1426   1.403       .  A
C1425      C1430   1.412       .  A
C1426      C1427   1.393       .  A
C1426      H1431   1.085       .  S
C1427      C1428   1.420       .  A
C1427      C1434   1.447       .  S
C1428      C1429   1.405       .  A
C1429      C1430   1.401       .  A
C1429      H1432   1.084       .  S
C1430      C1433   1.443       .  S
C1433      N1435   1.157       .  T
C1434      N1436   1.158       .  T
C1437      C1438   1.403       .  A
C1437      C1442   1.414       .  A
C1438      C1439   1.402       .  A
C1438      H1443   1.086       .  S
C1439      C1440   1.415       .  A
C1439      C1446   1.444       .  S
C1440      C1441   1.403       .  A
C1441      C1442   1.396       .  A
C1441      H1444   1.086       .  S
C1442      C1445   1.445       .  S
C1445      N1447   1.157       .  T
C1446      N1448   1.157       .  T
C1449      C1450   1.401       .  A
C1449      C1454   1.407       .  A
C1450      C1451   1.396       .  A
C1450      H1455   1.087       .  S
C1451      C1452   1.417       .  A
C1451      C1458   1.444       .  S
C1452      C1453   1.412       .  A
C1453      C1454   1.399       .  A
C1453      H1456   1.084       .  S
C1454      C1457   1.445   1_565  S
C1457      N1459   1.158       .  T
C1458      N1460   1.157       .  T
C1461      C1462   1.410       .  A
C1461      C1466   1.420       .  A
C1462      C1463   1.405       .  A
C1462      H1467   1.084       .  S
C1463      C1464   1.414       .  A
C1463      C1470   1.445       .  S
C1464      C1465   1.402       .  A
C1465      C1466   1.400       .  A
C1465      H1468   1.084       .  S
C1466      C1469   1.444       .  S
C1469      N1471   1.157       .  T
C1470      N1472   1.158       .  T
C1473      C1474   1.407       .  A
C1473      C1478   1.414       .  A
C1474      C1475   1.397       .  A
C1474      H1479   1.083       .  S
C1475      C1476   1.413       .  A
C1475      C1482   1.444       .  S
C1476      C1477   1.408       .  A
C1477      C1478   1.398       .  A
C1477      H1480   1.084       .  S
C1478      C1481   1.445       .  S
C1481      N1483   1.157       .  T
C1482      N1484   1.157       .  T
C1485      C1486   1.405       .  A
C1485      C1490   1.415       .  A
C1486      C1487   1.390       .  A
C1486      H1491   1.085       .  S
C1487      C1488   1.406       .  A
C1487      C1494   1.443       .  S
C1488      C1489   1.403       .  A
C1489      C1490   1.400       .  A
C1489      H1492   1.085       .  S
C1490      C1493   1.444       .  S
C1493      N1495   1.157   1_556  T
C1494      N1496   1.156       .  T
C1497      C1498   1.403       .  A
C1497      C1502   1.408   1_556  A
C1498      C1499   1.399   1_556  A
C1498      H1503   1.085       .  S
C1499      C1500   1.418       .  A
C1499      C1506   1.445   1_554  S
C1500      C1501   1.410       .  A
C1501      C1502   1.399       .  A
C1501      H1504   1.084       .  S
C1502      C1505   1.445       .  S
C1505      N1507   1.157       .  T
C1506      N1508   1.157       .  T
C1509      C1510   1.404       .  A
C1509      C1514   1.414       .  A
C1510      C1511   1.401       .  A
C1510      H1515   1.085       .  S
C1511      C1512   1.418       .  A
C1511      C1518   1.445       .  S
C1512      C1513   1.405       .  A
C1513      C1514   1.399       .  A
C1513      H1516   1.085       .  S
C1514      C1517   1.444       .  S
C1517      N1519   1.157       .  T
C1518      N1520   1.158   1_545  T
C1521      C1522   1.410       .  A
C1521      C1526   1.417       .  A
C1522      C1523   1.403       .  A
C1522      H1527   1.084       .  S
C1523      C1524   1.411   1_556  A
C1523      C1530   1.444   1_545  S
C1524      C1525   1.406       .  A
C1525      C1526   1.407   1_554  A
C1525      H1528   1.084       .  S
C1526      C1529   1.444       .  S
C1529      N1531   1.157       .  T
C1530      N1532   1.157       .  T
C1533      C1534   1.407       .  A
C1533      C1538   1.411       .  A
C1534      C1535   1.390       .  A
C1534      H1539   1.085       .  S
C1535      C1536   1.406       .  A
C1535      C1542   1.446       .  S
C1536      C1537   1.405       .  A
C1537      C1538   1.402       .  A
C1537      H1540   1.086       .  S
C1538      C1541   1.443       .  S
C1541      N1543   1.157       .  T
C1542      N1544   1.157       .  T
C1545      C1546   1.405       .  A
C1545      C1550   1.412       .  A
C1546      C1547   1.399   1_565  A
C1546      H1551   1.086       .  S
C1547      C1548   1.412       .  A
C1547      C1554   1.445       .  S
C1548      C1549   1.405       .  A
C1549      C1550   1.400   1_545  A
C1549      H1552   1.085       .  S
C1550      C1553   1.445       .  S
C1553      N1555   1.157       .  T
C1554      N1556   1.157       .  T
C1557      C1558   1.403       .  A
C1557      C1562   1.406       .  A
C1558      C1559   1.401       .  A
C1558      H1563   1.087       .  S
C1559      C1560   1.413       .  A
C1559      C1566   1.444       .  S
C1560      C1561   1.405       .  A
C1561      C1562   1.396       .  A
C1561      H1564   1.086       .  S
C1562      C1565   1.444       .  S
C1565      N1567   1.157       .  T
C1566      N1568   1.158       .  T
C1569      C1570   1.406       .  A
C1569      C1574   1.418       .  A
C1570      C1571   1.402       .  A
C1570      H1575   1.084       .  S
C1571      C1572   1.418       .  A
C1571      C1578   1.445       .  S
C1572      C1573   1.405       .  A
C1573      C1574   1.403       .  A
C1573      H1576   1.084       .  S
C1574      C1577   1.445       .  S
C1577      N1579   1.157       .  T
C1578      N1580   1.157       .  T
C1581      C1582   1.407       .  A
C1581      C1586   1.421       .  A
C1582      C1583   1.402       .  A
C1582      H1587   1.084       .  S
C1583      C1584   1.413       .  A
C1583      C1590   1.444       .  S
C1584      C1585   1.402       .  A
C1585      C1586   1.398       .  A
C1585      H1588   1.084       .  S
C1586      C1589   1.446       .  S
C1589      N1591   1.157       .  T
C1590      N1592   1.157   1_545  T
C1593      C1594   1.405       .  A
C1593      C1598   1.418       .  A
C1594      C1595   1.398       .  A
C1594      H1599   1.082       .  S
C1595      C1596   1.410       .  A
C1595      C1602   1.445   1_545  S
C1596      C1597   1.400       .  A
C1597      C1598   1.399       .  A
C1597      H1600   1.082       .  S
C1598      C1601   1.444       .  S
C1601      N1603   1.157       .  T
C1602      N1604   1.157       .  T
C1605      C1606   1.404       .  A
C1605      C1610   1.408       .  A
C1606      C1607   1.402       .  A
C1606      H1611   1.083       .  S
C1607      C1608   1.411       .  A
C1607      C1614   1.444       .  S
C1608      C1609   1.405       .  A
C1609      C1610   1.394       .  A
C1609      H1612   1.083       .  S
C1610      C1613   1.443       .  S
C1613      N1615   1.157       .  T
C1614      N1616   1.157       .  T
C1617      C1618   1.410       .  A
C1617      C1622   1.417       .  A
C1618      C1619   1.404   1_565  A
C1618      H1623   1.085       .  S
C1619      C1620   1.411   1_545  A
C1619      C1626   1.444       .  S
C1620      C1621   1.405       .  A
C1621      C1622   1.405       .  A
C1621      H1624   1.087       .  S
C1622      C1625   1.444       .  S
C1625      N1627   1.157       .  T
C1626      N1628   1.157       .  T
C1629      C1630   1.400       .  A
C1629      C1634   1.413       .  A
C1630      C1631   1.399       .  A
C1630      H1635   1.085       .  S
C1631      C1632   1.423       .  A
C1631      C1638   1.446       .  S
C1632      C1633   1.405       .  A
C1633      C1634   1.400       .  A
C1633      H1636   1.083       .  S
C1634      C1637   1.444       .  S
C1637      N1639   1.157       .  T
C1638      N1640   1.158       .  T
C1641      C1642   1.407       .  A
C1641      C1646   1.421       .  A
C1642      C1643   1.403       .  A
C1642      H1647   1.084       .  S
C1643      C1644   1.413       .  A
C1643      C1650   1.444       .  S
C1644      C1645   1.404       .  A
C1645      C1646   1.402       .  A
C1645      H1648   1.086       .  S
C1646      C1649   1.446       .  S
C1649      N1651   1.158       .  T
C1650      N1652   1.157   1_565  T
C1653      C1654   1.405       .  A
C1653      C1658   1.413       .  A
C1654      C1655   1.389       .  A
C1654      H1659   1.084       .  S
C1655      C1656   1.406       .  A
C1655      C1662   1.445       .  S
C1656      C1657   1.405       .  A
C1657      C1658   1.402       .  A
C1657      H1660   1.086       .  S
C1658      C1661   1.444       .  S
C1661      N1663   1.157   1_554  T
C1662      N1664   1.157       .  T
C1665      C1666   1.403       .  A
C1665      C1670   1.414   1_556  A
C1666      C1667   1.391   1_545  A
C1666      H1671   1.087       .  S
C1667      C1668   1.416   1_556  A
C1667      C1674   1.446       .  S
C1668      C1669   1.402       .  A
C1669      C1670   1.391   1_565  A
C1669      H1672   1.086       .  S
C1670      C1673   1.445       .  S
C1673      N1675   1.157       .  T
C1674      N1676   1.158       .  T
C1677      C1678   1.405       .  A
C1677      C1682   1.415       .  A
C1678      C1679   1.400       .  A
C1678      H1683   1.082       .  S
C1679      C1680   1.407       .  A
C1679      C1686   1.445       .  S
C1680      C1681   1.399       .  A
C1681      C1682   1.400       .  A
C1681      H1684   1.083       .  S
C1682      C1685   1.445       .  S
C1685      N1687   1.157       .  T
C1686      N1688   1.157       .  T
C1689      C1690   1.401   1_556  A
C1689      C1694   1.413       .  A
C1690      C1691   1.402       .  A
C1690      H1695   1.085   1_565  S
C1691      C1692   1.424       .  A
C1691      C1698   1.446       .  S
C1692      C1693   1.405       .  A
C1693      C1694   1.403   1_554  A
C1693      H1696   1.084       .  S
C1694      C1697   1.443       .  S
C1697      N1699   1.157       .  T
C1698      N1700   1.158   1_565  T
C1701      C1702   1.402       .  A
C1701      C1706   1.410   1_554  A
C1702      C1703   1.397   1_554  A
C1702      H1707   1.086       .  S
C1703      C1704   1.417       .  A
C1703      C1710   1.444       .  S
C1704      C1705   1.413       .  A
C1705      C1706   1.403       .  A
C1705      H1708   1.085       .  S
C1706      C1709   1.445       .  S
C1709      N1711   1.158       .  T
C1710      N1712   1.157   1_556  T
C1713      C1714   1.402       .  A
C1713      C1718   1.412       .  A
C1714      C1715   1.397       .  A
C1714      H1719   1.087       .  S
C1715      C1716   1.417       .  A
C1715      C1722   1.444       .  S
C1716      C1717   1.408       .  A
C1717      C1718   1.402       .  A
C1717      H1720   1.085       .  S
C1718      C1721   1.444       .  S
C1721      N1723   1.157       .  T
C1722      N1724   1.157   1_565  T
C1725      C1726   1.402       .  A
C1725      C1730   1.402       .  A
C1726      C1727   1.396       .  A
C1726      H1731   1.084       .  S
C1727      C1728   1.412       .  A
C1727      C1734   1.444       .  S
C1728      C1729   1.407       .  A
C1729      C1730   1.389       .  A
C1729      H1732   1.084       .  S
C1730      C1733   1.446       .  S
C1733      N1735   1.157       .  T
C1734      N1736   1.157       .  T
C1737      C1738   1.406       .  A
C1737      C1742   1.415       .  A
C1738      C1739   1.397   1_565  A
C1738      H1743   1.084       .  S
C1739      C1740   1.416       .  A
C1739      C1746   1.446       .  S
C1740      C1741   1.402       .  A
C1741      C1742   1.393   1_545  A
C1741      H1744   1.084       .  S
C1742      C1745   1.444       .  S
C1745      N1747   1.157       .  T
C1746      N1748   1.158       .  T
C1749      C1750   1.406       .  A
C1749      C1754   1.417       .  A
C1750      C1751   1.403       .  A
C1750      H1755   1.085       .  S
C1751      C1752   1.417       .  A
C1751      C1758   1.444       .  S
C1752      C1753   1.408       .  A
C1753      C1754   1.404       .  A
C1753      H1756   1.085       .  S
C1754      C1757   1.445       .  S
C1757      N1759   1.158       .  T
C1758      N1760   1.157       .  T
C1761      C1762   1.405       .  A
C1761      C1766   1.419       .  A
C1762      C1763   1.399       .  A
C1762      H1767   1.085       .  S
C1763      C1764   1.415       .  A
C1763      C1770   1.445       .  S
C1764      C1765   1.404       .  A
C1765      C1766   1.401       .  A
C1765      H1768   1.087       .  S
C1766      C1769   1.446       .  S
C1769      N1771   1.158       .  T
C1770      N1772   1.157   1_545  T
C1773      C1774   1.402       .  A
C1773      C1778   1.411       .  A
C1774      C1775   1.399       .  A
C1774      H1779   1.086       .  S
C1775      C1776   1.418       .  A
C1775      C1782   1.444       .  S
C1776      C1777   1.411       .  A
C1777      C1778   1.402       .  A
C1777      H1780   1.085       .  S
C1778      C1781   1.445   1_545  S
C1781      N1783   1.158       .  T
C1782      N1784   1.157       .  T
C1785      C1786   1.407       .  A
C1785      C1790   1.413       .  A
C1786      C1787   1.390       .  A
C1786      H1791   1.086       .  S
C1787      C1788   1.407       .  A
C1787      C1794   1.444       .  S
C1788      C1789   1.406       .  A
C1789      C1790   1.402       .  A
C1789      H1792   1.085       .  S
C1790      C1793   1.443       .  S
C1793      N1795   1.157       .  T
C1794      N1796   1.157       .  T
C1797      C1798   1.404   1_455  A
C1797      C1802   1.416       .  A
C1798      C1799   1.395   1_565  A
C1798      H1803   1.087       .  S
C1799      C1800   1.416       .  A
C1799      C1806   1.445       .  S
C1800      C1801   1.406   1_655  A
C1801      C1802   1.396   1_545  A
C1801      H1804   1.087       .  S
C1802      C1805   1.445       .  S
C1805      N1807   1.158       .  T
C1806      N1808   1.157       .  T
C1809      C1810   1.405       .  A
C1809      C1814   1.407       .  A
C1810      C1811   1.408       .  A
C1810      H1815   1.085       .  S
C1811      C1812   1.418       .  A
C1811      C1818   1.444       .  S
C1812      C1813   1.409       .  A
C1813      C1814   1.397       .  A
C1813      H1816   1.084       .  S
C1814      C1817   1.445       .  S
C1817      N1819   1.157       .  T
C1818      N1820   1.158       .  T
C1821      C1822   1.407       .  A
C1821      C1826   1.420       .  A
C1822      C1823   1.403       .  A
C1822      H1827   1.085       .  S
C1823      C1824   1.417       .  A
C1823      C1830   1.445       .  S
C1824      C1825   1.404       .  A
C1825      C1826   1.401       .  A
C1825      H1828   1.084       .  S
C1826      C1829   1.445       .  S
C1829      N1831   1.157       .  T
C1830      N1832   1.157       .  T
C1833      C1834   1.404       .  A
C1833      C1838   1.416       .  A
C1834      C1835   1.399       .  A
C1834      H1839   1.086       .  S
C1835      C1836   1.418       .  A
C1835      C1842   1.445       .  S
C1836      C1837   1.404       .  A
C1837      C1838   1.399       .  A
C1837      H1840   1.086       .  S
C1838      C1841   1.444       .  S
C1841      N1843   1.157       .  T
C1842      N1844   1.158   1_545  T
C1845      C1846   1.409       .  A
C1845      C1850   1.419       .  A
C1846      C1847   1.405       .  A
C1846      H1851   1.084       .  S
C1847      C1848   1.417       .  A
C1847      C1854   1.444       .  S
C1848      C1849   1.407       .  A
C1849      C1850   1.406       .  A
C1849      H1852   1.084   1_545  S
C1850      C1853   1.444       .  S
C1853      N1855   1.157       .  T
C1854      N1856   1.157       .  T
