geometry optimzed in LAMMPS
_audit_creation_date              2020-11-30 
_audit_creation_method            'lammps2cif' 
_symmetry_space_group_name_H-M    'P1' 
_symmetry_Int_Tables_number       1 
_symmetry_cell_setting            triclinic 
loop_ 
_symmetry_equiv_pos_as_xyz 
  x,y,z 
_cell_length_a                    35.38687210232879 
_cell_length_b                    29.70129628963891 
_cell_length_c                    37.001178845490024 
_cell_angle_alpha                 90.0005543878761 
_cell_angle_beta                  103.80390203454158 
_cell_angle_gamma                 90.00430162725883 
loop_ 
_atom_site_label 
_atom_site_type_symbol 
_atom_site_fract_x 
_atom_site_fract_y 
_atom_site_fract_z 
_atom_site_charge 
O1          O  0.23643129  0.71929953  0.42927486    -0.80070
C2          C  0.24683524  0.62278328  0.30515707     0.99290
O3          O  0.27034541  0.64286183  0.33140557    -0.69180
O4          O  0.29363786  0.70140674  0.38698979    -0.72780
Al5        Al  0.26373966  0.64680626  0.38126354     1.48980
C6          C  0.28572820  0.74098263  0.37556486     0.94540
O7          O  0.17674234  0.74374554  0.33008734    -0.79000
O8          O  0.13655877  0.66414610  0.35106537    -0.72550
Al9        Al  0.20783744  0.72719619  0.37836022     1.90120
O10         O  0.17308471  0.68146449  0.29690472    -0.71620
O11         O  0.18274773  0.59219049  0.37017571    -0.71470
O12         O  0.21426519  0.60906594  0.30926664    -0.77130
O13         O  0.24612026  0.58531161  0.38059182    -0.75340
O14         O  0.21691728  0.67142899  0.36494029    -1.11470
O15         O  0.25972512  0.64989138  0.43140250    -0.70670
C16         C  0.25078436  0.68456700  0.44740278     1.00050
C17         C  0.16669902  0.72265358  0.29956210     0.96450
Al18       Al  0.17981861  0.63922037  0.33479279     1.55560
O19         O  0.25100922  0.75306849  0.36365936    -0.75290
C20         C  0.21314996  0.56886277  0.38039961     1.00620
C21         C  0.13368562  0.69233098  0.37569622     0.95500
O22         O  0.16330252  0.71132396  0.39509422    -0.80610
O23         O  0.28057590  0.71927767  0.07818791    -0.80070
C24         C  0.27020129  0.62281681  0.20235064     0.99290
O25         O  0.24669301  0.64283419  0.17606736    -0.69180
O26         O  0.22341449  0.70133870  0.12046327    -0.72780
Al27       Al  0.25335192  0.64676192  0.12622383     1.48980
C28         C  0.23130251  0.74092639  0.13188478     0.94540
O29         O  0.34029994  0.74386890  0.17733085    -0.79000
O30         O  0.38049890  0.66434458  0.15652328    -0.72550
Al31       Al  0.30918681  0.72722188  0.12908475     1.90120
O32         O  0.34385928  0.68168818  0.21061480    -0.71620
O33         O  0.33443859  0.59229216  0.13747997    -0.71470
O34         O  0.30281227  0.60918048  0.19829910    -0.77130
O35         O  0.27106563  0.58528762  0.12696079    -0.75340
O36         O  0.30013871  0.67146779  0.14256178    -1.11470
O37         O  0.25739362  0.64982136  0.07608466    -0.70670
C38         C  0.26626913  0.68452157  0.06007009     1.00050
C39         C  0.35029242  0.72285648  0.20789605     0.96450
Al40       Al  0.33724886  0.63937100  0.17278629     1.55560
O41         O  0.26601282  0.75305843  0.14378364    -0.75290
C42         C  0.30408109  0.56888491  0.12726617     1.00620
C43         C  0.38334613  0.69242587  0.13180906     0.95500
O44         O  0.35371133  0.71131686  0.11234764    -0.80610
O45         O  0.41340115  0.79173981  0.39536112    -0.80070
C46         C  0.49682459  0.87998464  0.30514770     0.99290
O47         O  0.46425016  0.89368190  0.30925252    -0.69180
O48         O  0.42311742  0.82121468  0.29699191    -0.72780
Al49       Al  0.42983108  0.86354738  0.33482141     1.48980
C50         C  0.41657547  0.78007562  0.29974548     0.94540
O51         O  0.50091348  0.74972046  0.36372054    -0.79000
O52         O  0.50980453  0.85301880  0.43139689    -0.72550
Al53       Al  0.45783027  0.77568347  0.37851481     1.90120
O54         O  0.04361461  0.80137810  0.38695067    -0.71620
O55         O  0.49614260  0.91751779  0.38056258    -0.71470
O56         O  0.02033354  0.85990945  0.33138988    -0.77130
O57         O  0.43276383  0.91062833  0.37015537    -0.75340
O58         O  0.46693589  0.83139841  0.36499412    -1.11470
O59         O  0.38658464  0.83863082  0.35113701    -0.70670
C60         C  0.38375055  0.81057809  0.37587677     1.00050
C61         C  0.03565319  0.76179891  0.37553791     0.96450
Al62       Al  0.51376531  0.85601846  0.38125092     1.55560
O63         O  0.42657791  0.75907228  0.33031574    -0.75290
C64         C  0.46316984  0.93395776  0.38037900     1.00620
C65         C  0.50087880  0.81837657  0.44743988     0.95500
O66         O  0.48655195  0.78360406  0.42936503    -0.80610
O67         O  0.10362715  0.79175599  0.11209758    -0.80070
C68         C  0.02025272  0.87995227  0.20238910     0.99290
O69         O  0.05287151  0.89357050  0.19834376    -0.69180
O70         O  0.09386144  0.82100325  0.21054095    -0.72780
Al71       Al  0.08727154  0.86341182  0.17277747     1.48980
C72         C  0.10042903  0.77988332  0.20772102     0.94540
O73         O  0.01610930  0.74974039  0.14373136    -0.79000
O74         O  0.00734259  0.85310104  0.07611253    -0.72550
Al75       Al  0.05920265  0.77566955  0.12894317     1.90120
O76         O  0.47345384  0.80145580  0.12051674    -0.71620
O77         O  0.02108234  0.91754781  0.12702408    -0.71470
O78         O  0.99673954  0.85993906  0.17610970    -0.77130
O79         O  0.08446035  0.91054991  0.13752798    -0.75340
O80         O  0.05014549  0.83137147  0.14252704    -1.11470
O81         O  0.13050012  0.83845570  0.15646055    -0.70670
C82         C  0.13330031  0.81049890  0.13164051     1.00050
C83         C  0.48138195  0.76186449  0.13191964     0.96450
Al84       Al  0.00335648  0.85607061  0.12626092     1.55560
O85         O  0.09046429  0.75895983  0.17711047    -0.75290
C86         C  0.05409987  0.93395057  0.12731942     1.00620
C87         C  0.01619403  0.81843400  0.06005173     0.95500
O88         O  0.03046772  0.78363942  0.07811307    -0.80610
O89         O  0.16381101  0.29174674  0.39586467    -0.80070
C90         C  0.24721972  0.37994247  0.30559562     0.99290
O91         O  0.21459989  0.39355941  0.30963451    -0.69180
O92         O  0.17360613  0.32098861  0.29742587    -0.72780
Al93       Al  0.18018871  0.36339793  0.33518982     1.48980
C94         C  0.16702405  0.27987109  0.30024402     0.94540
O95         O  0.25133189  0.24973162  0.36424396    -0.79000
O96         O  0.26009789  0.35309216  0.43186793    -0.72550
Al97       Al  0.20823783  0.27565907  0.37902607     1.90120
O98         O  0.29399157  0.30144728  0.38747007    -0.71620
O99         O  0.24637363  0.41754135  0.38095816    -0.71470
O100        O  0.27072602  0.35993124  0.33187826    -0.77130
O101        O  0.18299417  0.41053590  0.37043881    -0.75340
O102        O  0.21730561  0.33136090  0.36544659    -1.11470
O103        O  0.13695078  0.33843886  0.35149535    -0.70670
C104        C  0.13414228  0.31048627  0.37631585     1.00050
C105        C  0.28605999  0.26185588  0.37606361     0.96450
Al106      Al  0.26409564  0.35606267  0.38172289     1.55480
O107        O  0.17697875  0.25894846  0.33085471    -0.75290
C108        C  0.21335433  0.43394134  0.38065316     1.00620
C109        C  0.25124192  0.31842310  0.44792483     0.95500
O110        O  0.23696709  0.28362845  0.42985953    -0.80610
O111        O  0.35404093  0.29171938  0.11261154    -0.80070
C112        C  0.27064719  0.37997619  0.20283593     0.99290
O113        O  0.30321992  0.39367819  0.19872460    -0.69180
O114        O  0.34436278  0.32122700  0.21097379    -0.72780
Al115      Al  0.33762959  0.36355475  0.17314122     1.48980
C116        C  0.35087972  0.28008217  0.20822497     0.94540
O117        O  0.26652491  0.24971776  0.14426130    -0.79000
O118        O  0.25763920  0.35300912  0.07658208    -0.72550
Al119      Al  0.30961009  0.27567667  0.12946161     1.90120
O120        O  0.22383036  0.30137134  0.12103130    -0.71620
O121        O  0.27130626  0.41751242  0.12741882    -0.71470
O122        O  0.24713111  0.35990018  0.17659607    -0.77130
O123        O  0.33468261  0.41063848  0.13780536    -0.75340
O124        O  0.30051635  0.33139581  0.14297965    -1.11470
O125        O  0.38086566  0.33864624  0.15680926    -0.70670
C126        C  0.38369358  0.31057530  0.13208044     1.00050
C127        C  0.23178667  0.26179434  0.13244557     0.96450
Al128      Al  0.25368656  0.35601063  0.12673087     1.55560
O129        O  0.34085952  0.25907104  0.17765908    -0.75290
C130        C  0.30427476  0.43396206  0.12759349     1.00620
C131        C  0.26656060  0.31836614  0.06053787     0.95500
O132        O  0.28088669  0.28359521  0.07861184    -0.80610
O133        O  0.48686192  0.21926684  0.42977761    -0.80070
C134        C  0.49719754  0.12280761  0.30560234     0.99290
O135        O  0.02071304  0.14282714  0.33188209    -0.69180
O136        O  0.04401262  0.20133038  0.38748805    -0.72780
Al137      Al  0.51406840  0.14675439  0.38173007     1.48980
C138        C  0.03612819  0.24091805  0.37607041     0.94540
O139        O  0.42712990  0.24385804  0.33064203    -0.79000
O140        O  0.38692280  0.16432657  0.35146144    -0.72550
Al141      Al  0.45824538  0.22721197  0.37888409     1.90120
O142        O  0.42354292  0.18167306  0.29735734    -0.71620
O143        O  0.43298036  0.09227780  0.37049273    -0.71470
O144        O  0.46458768  0.10917009  0.30966072    -0.77130
O145        O  0.49635165  0.08528140  0.38099450    -0.75340
O146        O  0.46728242  0.17145751  0.36540287    -1.11470
O147        O  0.01003866  0.14981257  0.43187271    -0.70670
C148        C  0.50116755  0.18451064  0.44789130     1.00050
C149        C  0.41712586  0.22284417  0.30007740     0.96450
Al150      Al  0.43016275  0.13935686  0.33518566     1.55560
O151        O  0.50141869  0.25304985  0.36417904    -0.75290
C152        C  0.46333840  0.06887553  0.38069973     1.00620
C153        C  0.38408402  0.19241339  0.37617424     0.95500
O154        O  0.41372309  0.21130947  0.39562831    -0.80610
O155        O  0.03100316  0.21928963  0.07868633    -0.80070
C156        C  0.02056438  0.12277324  0.20279712     0.99290
O157        O  0.99706182  0.14285109  0.17654612    -0.69180
O158        O  0.47379007  0.20139942  0.12096698    -0.72780
Al159      Al  0.00368116  0.14679747  0.12669263     1.48980
C160        C  0.48170518  0.24097749  0.13239057     0.94540
O161        O  0.09069398  0.24374298  0.17787574    -0.79000
O162        O  0.13086414  0.16416264  0.15693023    -0.72550
Al163      Al  0.05959548  0.22718791  0.12960131     1.90120
O164        O  0.09430418  0.18147699  0.21106899    -0.71620
O165        O  0.08467989  0.09220044  0.13780364    -0.71470
O166        O  0.05313617  0.10906053  0.19869442    -0.77130
O167        O  0.02130457  0.08530558  0.12736439    -0.75340
O168        O  0.05050301  0.17142541  0.14302441    -1.11470
O169        O  0.00770389  0.14988100  0.07655652    -0.70670
C170        C  0.01664903  0.18455577  0.06055746     1.00050
C171        C  0.10071723  0.22265979  0.20840606     0.96450
Al172      Al  0.08759277  0.13922749  0.17318439     1.55560
O173        O  0.01642584  0.25306531  0.14429668    -0.75290
C174        C  0.05427962  0.06886677  0.12756665     1.00620
C175        C  0.13374366  0.19232741  0.13228696     0.95500
O176        O  0.10412849  0.21129988  0.11287107    -0.80610
C177        C  0.00696909  0.18455255  0.48759530    -0.11540
C178        C  0.01087576  0.18458076  0.02085637    -0.13100
C179        C  0.00617792  0.11740887  0.26976244    -0.11540
C180        C  0.01161368  0.11739610  0.23865209    -0.13100
C181        C  0.17144509  0.20839479  0.13000569    -0.11540
C182        C  0.20051503  0.23029615  0.13121147    -0.13100
C183        C  0.45041667  0.27247185  0.13106146    -0.11540
C184        C  0.42136538  0.29442217  0.12979988    -0.13100
C185        C  0.39474901  0.24441436  0.26796760    -0.11540
C186        C  0.37336263  0.25854263  0.24029933    -0.13100
C187        C  0.06743613  0.27237802  0.37738628    -0.11540
C188        C  0.09648521  0.29432086  0.37862154    -0.13100
C189        C  0.31734509  0.23038968  0.37730725    -0.11540
C190        C  0.34640623  0.20849181  0.37849487    -0.13100
C191        C  0.14452010  0.25828461  0.26820297    -0.11540
C192        C  0.12311223  0.24416961  0.24054039    -0.13100
C193        C  0.25699629  0.31845826  0.48761065    -0.11540
C194        C  0.26082606  0.31842401  0.02085417    -0.13100
C195        C  0.26169777  0.38537064  0.23868287    -0.11540
C196        C  0.25622998  0.38535749  0.26977705    -0.13100
C197        C  0.05710478  0.98112342  0.12003566    -0.11540
C198        C  0.05717485  0.02172171  0.12011851    -0.13100
C199        C  0.46033776  0.02169639  0.38796316    -0.11540
C200        C  0.46027912  0.98109786  0.38785090    -0.13100
C201        C  0.00660950  0.81843702  0.48712290    -0.11540
C202        C  0.01043760  0.81847170  0.02036604    -0.13100
C203        C  0.01125029  0.88536875  0.23821070    -0.11540
C204        C  0.50578233  0.88538135  0.26930470    -0.13100
C205        C  0.30708617  0.52170432  0.12000778    -0.11540
C206        C  0.30715701  0.48110518  0.12012298    -0.13100
C207        C  0.17095318  0.79433155  0.12933020    -0.11540
C208        C  0.19999818  0.77238655  0.13056541    -0.13100
C209        C  0.45009325  0.73039863  0.13068044    -0.11540
C210        C  0.42102814  0.70850288  0.12949334    -0.13100
C211        C  0.37267969  0.74442078  0.24000658    -0.11540
C212        C  0.39407833  0.75853981  0.26767344    -0.13100
C213        C  0.21026367  0.52171460  0.38784618    -0.11540
C214        C  0.21034566  0.48111571  0.38793188    -0.13100
C215        C  0.06692067  0.73029946  0.37677560    -0.11540
C216        C  0.09598692  0.70839621  0.37798187    -0.13100
C217        C  0.34607609  0.79442397  0.37815364    -0.11540
C218        C  0.31702093  0.77247580  0.37689182    -0.13100
C219        C  0.12292287  0.75829102  0.23976124    -0.11540
C220        C  0.14431853  0.74416696  0.26742528    -0.13100
C221        C  0.25656123  0.68459439  0.48710451    -0.11540
C222        C  0.26046954  0.68456635  0.02036597    -0.13100
C223        C  0.25577723  0.61740785  0.26929801    -0.11540
C224        C  0.26121277  0.61742031  0.23818746    -0.13100
O225        O  0.23643129  0.71929953  0.92927486    -0.80070
C226        C  0.24683524  0.62278328  0.80515707     0.99290
O227        O  0.27034541  0.64286182  0.83140557    -0.69180
O228        O  0.29363786  0.70140674  0.88698979    -0.72780
Al229      Al  0.26373966  0.64680626  0.88126354     1.48980
C230        C  0.28572820  0.74098263  0.87556486     0.94540
O231        O  0.17674234  0.74374553  0.83008734    -0.79000
O232        O  0.13655877  0.66414609  0.85106537    -0.72550
Al233      Al  0.20783744  0.72719619  0.87836022     1.90120
O234        O  0.17308471  0.68146449  0.79690472    -0.71620
O235        O  0.18274773  0.59219049  0.87017571    -0.71470
O236        O  0.21426519  0.60906594  0.80926664    -0.77130
O237        O  0.24612026  0.58531161  0.88059182    -0.75340
O238        O  0.21691727  0.67142899  0.86494029    -1.11470
O239        O  0.25972512  0.64989138  0.93140250    -0.70670
C240        C  0.25078436  0.68456700  0.94740278     1.00050
C241        C  0.16669901  0.72265357  0.79956210     0.96450
Al242      Al  0.17981861  0.63922037  0.83479279     1.55560
O243        O  0.25100922  0.75306849  0.86365936    -0.75290
C244        C  0.21314996  0.56886276  0.88039961     1.00620
C245        C  0.13368562  0.69233097  0.87569622     0.95500
O246        O  0.16330252  0.71132395  0.89509422    -0.80610
O247        O  0.28057590  0.71927767  0.57818791    -0.80070
C248        C  0.27020129  0.62281681  0.70235064     0.99290
O249        O  0.24669301  0.64283418  0.67606736    -0.69180
O250        O  0.22341449  0.70133869  0.62046327    -0.72780
Al251      Al  0.25335192  0.64676192  0.62622383     1.48980
C252        C  0.23130251  0.74092639  0.63188478     0.94540
O253        O  0.34029994  0.74386889  0.67733085    -0.79000
O254        O  0.38049890  0.66434457  0.65652328    -0.72550
Al255      Al  0.30918681  0.72722187  0.62908475     1.90120
O256        O  0.34385928  0.68168818  0.71061480    -0.71620
O257        O  0.33443860  0.59229215  0.63747997    -0.71470
O258        O  0.30281227  0.60918048  0.69829910    -0.77130
O259        O  0.27106563  0.58528761  0.62696079    -0.75340
O260        O  0.30013871  0.67146778  0.64256178    -1.11470
O261        O  0.25739363  0.64982135  0.57608466    -0.70670
C262        C  0.26626914  0.68452157  0.56007009     1.00050
C263        C  0.35029242  0.72285647  0.70789605     0.96450
Al264      Al  0.33724886  0.63937100  0.67278630     1.55560
O265        O  0.26601282  0.75305843  0.64378364    -0.75290
C266        C  0.30408109  0.56888490  0.62726617     1.00620
C267        C  0.38334614  0.69242586  0.63180907     0.95500
O268        O  0.35371134  0.71131686  0.61234764    -0.80610
O269        O  0.41340114  0.79173981  0.89536112    -0.80070
C270        C  0.49682458  0.87998464  0.80514770     0.99290
O271        O  0.46425015  0.89368189  0.80925252    -0.69180
O272        O  0.42311742  0.82121468  0.79699192    -0.72780
Al273      Al  0.42983107  0.86354738  0.83482141     1.48980
C274        C  0.41657547  0.78007561  0.79974548     0.94540
O275        O  0.50091348  0.74972046  0.86372054    -0.79000
O276        O  0.50980453  0.85301879  0.93139689    -0.72550
Al277      Al  0.45783026  0.77568346  0.87851481     1.90120
O278        O  0.04361461  0.80137810  0.88695067    -0.71620
O279        O  0.49614260  0.91751779  0.88056258    -0.71470
O280        O  0.02033354  0.85990944  0.83138988    -0.77130
O281        O  0.43276382  0.91062833  0.87015537    -0.75340
O282        O  0.46693589  0.83139841  0.86499412    -1.11470
O283        O  0.38658464  0.83863082  0.85113701    -0.70670
C284        C  0.38375055  0.81057809  0.87587677     1.00050
C285        C  0.03565319  0.76179890  0.87553791     0.96450
Al286      Al  0.51376530  0.85601846  0.88125092     1.55560
O287        O  0.42657791  0.75907227  0.83031574    -0.75290
C288        C  0.46316984  0.93395776  0.88037900     1.00620
C289        C  0.50087879  0.81837657  0.94743988     0.95500
O290        O  0.48655195  0.78360406  0.92936504    -0.80610
O291        O  0.10362715  0.79175599  0.61209758    -0.80070
C292        C  0.02025272  0.87995226  0.70238910     0.99290
O293        O  0.05287152  0.89357049  0.69834376    -0.69180
O294        O  0.09386144  0.82100324  0.71054095    -0.72780
Al295      Al  0.08727154  0.86341181  0.67277747     1.48980
C296        C  0.10042903  0.77988332  0.70772102     0.94540
O297        O  0.01610930  0.74974038  0.64373136    -0.79000
O298        O  0.00734259  0.85310103  0.57611253    -0.72550
Al299      Al  0.05920264  0.77566955  0.62894317     1.90120
O300        O  0.47345384  0.80145579  0.62051674    -0.71620
O301        O  0.02108234  0.91754781  0.62702408    -0.71470
O302        O  0.99673955  0.85993906  0.67610970    -0.77130
O303        O  0.08446035  0.91054990  0.63752798    -0.75340
O304        O  0.05014549  0.83137147  0.64252704    -1.11470
O305        O  0.13050012  0.83845570  0.65646055    -0.70670
C306        C  0.13330031  0.81049889  0.63164050     1.00050
C307        C  0.48138195  0.76186449  0.63191964     0.96450
Al308      Al  0.00335648  0.85607061  0.62626092     1.55560
O309        O  0.09046429  0.75895982  0.67711047    -0.75290
C310        C  0.05409987  0.93395057  0.62731942     1.00620
C311        C  0.01619403  0.81843399  0.56005173     0.95500
O312        O  0.03046772  0.78363942  0.57811307    -0.80610
O313        O  0.16381101  0.29174673  0.89586467    -0.80070
C314        C  0.24721972  0.37994247  0.80559562     0.99290
O315        O  0.21459989  0.39355940  0.80963451    -0.69180
O316        O  0.17360613  0.32098860  0.79742588    -0.72780
Al317      Al  0.18018871  0.36339793  0.83518982     1.48980
C318        C  0.16702405  0.27987109  0.80024402     0.94540
O319        O  0.25133189  0.24973162  0.86424396    -0.79000
O320        O  0.26009789  0.35309216  0.93186793    -0.72550
Al321      Al  0.20823783  0.27565906  0.87902608     1.90120
O322        O  0.29399157  0.30144727  0.88747007    -0.71620
O323        O  0.24637363  0.41754134  0.88095817    -0.71470
O324        O  0.27072602  0.35993123  0.83187826    -0.77130
O325        O  0.18299417  0.41053590  0.87043881    -0.75340
O326        O  0.21730561  0.33136089  0.86544659    -1.11470
O327        O  0.13695078  0.33843886  0.85149536    -0.70670
C328        C  0.13414229  0.31048627  0.87631586     1.00050
C329        C  0.28605999  0.26185588  0.87606361     0.96450
Al330      Al  0.26409564  0.35606267  0.88172289     1.55480
O331        O  0.17697875  0.25894846  0.83085472    -0.75290
C332        C  0.21335433  0.43394133  0.88065316     1.00620
C333        C  0.25124192  0.31842309  0.94792483     0.95500
O334        O  0.23696709  0.28362845  0.92985953    -0.80610
O335        O  0.35404093  0.29171938  0.61261154    -0.80070
C336        C  0.27064719  0.37997619  0.70283593     0.99290
O337        O  0.30321992  0.39367818  0.69872460    -0.69180
O338        O  0.34436277  0.32122699  0.71097379    -0.72780
Al339      Al  0.33762959  0.36355474  0.67314122     1.48980
C340        C  0.35087972  0.28008217  0.70822497     0.94540
O341        O  0.26652491  0.24971776  0.64426129    -0.79000
O342        O  0.25763920  0.35300912  0.57658208    -0.72550
Al343      Al  0.30961009  0.27567666  0.62946161     1.90120
O344        O  0.22383036  0.30137134  0.62103130    -0.71620
O345        O  0.27130626  0.41751241  0.62741882    -0.71470
O346        O  0.24713111  0.35990018  0.67659607    -0.77130
O347        O  0.33468261  0.41063848  0.63780536    -0.75340
O348        O  0.30051635  0.33139581  0.64297965    -1.11470
O349        O  0.38086566  0.33864623  0.65680926    -0.70670
C350        C  0.38369358  0.31057529  0.63208044     1.00050
C351        C  0.23178667  0.26179434  0.63244557     0.96450
Al352      Al  0.25368656  0.35601062  0.62673087     1.55560
O353        O  0.34085952  0.25907104  0.67765908    -0.75290
C354        C  0.30427476  0.43396206  0.62759349     1.00620
C355        C  0.26656060  0.31836614  0.56053787     0.95500
O356        O  0.28088669  0.28359521  0.57861183    -0.80610
O357        O  0.48686192  0.21926684  0.92977760    -0.80070
C358        C  0.49719755  0.12280760  0.80560234     0.99290
O359        O  0.02071304  0.14282713  0.83188209    -0.69180
O360        O  0.04401262  0.20133038  0.88748805    -0.72780
Al361      Al  0.51406840  0.14675439  0.88173007     1.48980
C362        C  0.03612819  0.24091805  0.87607041     0.94540
O363        O  0.42712990  0.24385804  0.83064203    -0.79000
O364        O  0.38692281  0.16432657  0.85146143    -0.72550
Al365      Al  0.45824538  0.22721196  0.87888409     1.90120
O366        O  0.42354292  0.18167306  0.79735734    -0.71620
O367        O  0.43298036  0.09227779  0.87049273    -0.71470
O368        O  0.46458768  0.10917009  0.80966072    -0.77130
O369        O  0.49635165  0.08528139  0.88099450    -0.75340
O370        O  0.46728242  0.17145751  0.86540287    -1.11470
O371        O  0.01003866  0.14981257  0.93187271    -0.70670
C372        C  0.50116755  0.18451064  0.94789130     1.00050
C373        C  0.41712586  0.22284416  0.80007740     0.96450
Al374      Al  0.43016275  0.13935686  0.83518566     1.55560
O375        O  0.50141869  0.25304985  0.86417904    -0.75290
C376        C  0.46333840  0.06887553  0.88069973     1.00620
C377        C  0.38408402  0.19241338  0.87617424     0.95500
O378        O  0.41372309  0.21130947  0.89562830    -0.80610
O379        O  0.03100316  0.21928963  0.57868633    -0.80070
C380        C  0.02056439  0.12277324  0.70279712     0.99290
O381        O  0.99706182  0.14285109  0.67654612    -0.69180
O382        O  0.47379007  0.20139941  0.62096698    -0.72780
Al383      Al  0.00368116  0.14679747  0.62669263     1.48980
C384        C  0.48170518  0.24097748  0.63239057     0.94540
O385        O  0.09069398  0.24374298  0.67787574    -0.79000
O386        O  0.13086414  0.16416264  0.65693023    -0.72550
Al387      Al  0.05959548  0.22718791  0.62960131     1.90120
O388        O  0.09430418  0.18147698  0.71106899    -0.71620
O389        O  0.08467989  0.09220044  0.63780364    -0.71470
O390        O  0.05313617  0.10906053  0.69869442    -0.77130
O391        O  0.02130458  0.08530557  0.62736439    -0.75340
O392        O  0.05050301  0.17142541  0.64302441    -1.11470
O393        O  0.00770389  0.14988100  0.57655652    -0.70670
C394        C  0.01664903  0.18455577  0.56055747     1.00050
C395        C  0.10071723  0.22265978  0.70840606     0.96450
Al396      Al  0.08759277  0.13922749  0.67318439     1.55560
O397        O  0.01642584  0.25306530  0.64429668    -0.75290
C398        C  0.05427962  0.06886677  0.62756665     1.00620
C399        C  0.13374366  0.19232741  0.63228696     0.95500
O400        O  0.10412849  0.21129988  0.61287107    -0.80610
C401        C  0.00696909  0.18455255  0.98759530    -0.11540
C402        C  0.01087576  0.18458076  0.52085638    -0.13100
C403        C  0.00617792  0.11740886  0.76976244    -0.11540
C404        C  0.01161368  0.11739610  0.73865209    -0.13100
C405        C  0.17144509  0.20839479  0.63000569    -0.11540
C406        C  0.20051503  0.23029615  0.63121147    -0.13100
C407        C  0.45041667  0.27247185  0.63106147    -0.11540
C408        C  0.42136538  0.29442216  0.62979989    -0.13100
C409        C  0.39474902  0.24441435  0.76796760    -0.11540
C410        C  0.37336263  0.25854262  0.74029933    -0.13100
C411        C  0.06743613  0.27237801  0.87738629    -0.11540
C412        C  0.09648521  0.29432086  0.87862154    -0.13100
C413        C  0.31734510  0.23038968  0.87730725    -0.11540
C414        C  0.34640623  0.20849181  0.87849486    -0.13100
C415        C  0.14452010  0.25828461  0.76820297    -0.11540
C416        C  0.12311223  0.24416960  0.74054039    -0.13100
C417        C  0.25699629  0.31845826  0.98761065    -0.11540
C418        C  0.26082606  0.31842401  0.52085417    -0.13100
C419        C  0.26169777  0.38537063  0.73868287    -0.11540
C420        C  0.25622998  0.38535749  0.76977705    -0.13100
C421        C  0.05710478  0.98112342  0.62003566    -0.11540
C422        C  0.05717485  0.02172171  0.62011851    -0.13100
C423        C  0.46033776  0.02169639  0.88796316    -0.11540
C424        C  0.46027912  0.98109786  0.88785090    -0.13100
C425        C  0.00660950  0.81843702  0.98712290    -0.11540
C426        C  0.01043760  0.81847169  0.52036604    -0.13100
C427        C  0.01125030  0.88536875  0.73821070    -0.11540
C428        C  0.50578233  0.88538135  0.76930470    -0.13100
C429        C  0.30708617  0.52170432  0.62000778    -0.11540
C430        C  0.30715702  0.48110517  0.62012298    -0.13100
C431        C  0.17095318  0.79433154  0.62933020    -0.11540
C432        C  0.19999818  0.77238654  0.63056540    -0.13100
C433        C  0.45009325  0.73039863  0.63068044    -0.11540
C434        C  0.42102814  0.70850288  0.62949334    -0.13100
C435        C  0.37267968  0.74442078  0.74000658    -0.11540
C436        C  0.39407833  0.75853981  0.76767344    -0.13100
C437        C  0.21026367  0.52171460  0.88784618    -0.11540
C438        C  0.21034566  0.48111570  0.88793188    -0.13100
C439        C  0.06692067  0.73029945  0.87677560    -0.11540
C440        C  0.09598692  0.70839620  0.87798187    -0.13100
C441        C  0.34607608  0.79442397  0.87815364    -0.11540
C442        C  0.31702092  0.77247580  0.87689182    -0.13100
C443        C  0.12292286  0.75829101  0.73976124    -0.11540
C444        C  0.14431853  0.74416696  0.76742527    -0.13100
C445        C  0.25656123  0.68459439  0.98710451    -0.11540
C446        C  0.26046954  0.68456635  0.52036597    -0.13100
C447        C  0.25577723  0.61740784  0.76929802    -0.11540
C448        C  0.26121277  0.61742031  0.73818746    -0.13100
O449        O  0.73643129  0.71929952  0.42927486    -0.80070
C450        C  0.74683525  0.62278328  0.30515707     0.99290
O451        O  0.77034541  0.64286183  0.33140557    -0.69180
O452        O  0.79363786  0.70140673  0.38698979    -0.72780
Al453      Al  0.76373966  0.64680626  0.38126354     1.48980
C454        C  0.78572820  0.74098263  0.37556487     0.94540
O455        O  0.67674234  0.74374553  0.33008735    -0.79000
O456        O  0.63655877  0.66414609  0.35106537    -0.72550
Al457      Al  0.70783744  0.72719619  0.37836022     1.90120
O458        O  0.67308471  0.68146449  0.29690472    -0.71620
O459        O  0.68274772  0.59219048  0.37017571    -0.71470
O460        O  0.71426520  0.60906594  0.30926664    -0.77130
O461        O  0.74612025  0.58531161  0.38059182    -0.75340
O462        O  0.71691727  0.67142899  0.36494030    -1.11470
O463        O  0.75972512  0.64989137  0.43140250    -0.70670
C464        C  0.75078436  0.68456699  0.44740278     1.00050
C465        C  0.66669901  0.72265357  0.29956211     0.96450
Al466      Al  0.67981861  0.63922037  0.33479278     1.55560
O467        O  0.75100922  0.75306849  0.36365936    -0.75290
C468        C  0.71314996  0.56886276  0.38039961     1.00620
C469        C  0.63368562  0.69233097  0.37569622     0.95500
O470        O  0.66330252  0.71132394  0.39509422    -0.80610
O471        O  0.78057591  0.71927766  0.07818791    -0.80070
C472        C  0.77020130  0.62281681  0.20235064     0.99290
O473        O  0.74669302  0.64283418  0.17606736    -0.69180
O474        O  0.72341450  0.70133869  0.12046327    -0.72780
Al475      Al  0.75335192  0.64676192  0.12622383     1.48980
C476        C  0.73130252  0.74092639  0.13188478     0.94540
O477        O  0.84029995  0.74386889  0.17733085    -0.79000
O478        O  0.88049891  0.66434457  0.15652328    -0.72550
Al479      Al  0.80918682  0.72722187  0.12908474     1.90120
O480        O  0.84385928  0.68168818  0.21061480    -0.71620
O481        O  0.83443860  0.59229215  0.13747998    -0.71470
O482        O  0.80281228  0.60918048  0.19829910    -0.77130
O483        O  0.77106564  0.58528761  0.12696079    -0.75340
O484        O  0.80013871  0.67146778  0.14256178    -1.11470
O485        O  0.75739363  0.64982135  0.07608466    -0.70670
C486        C  0.76626914  0.68452156  0.06007009     1.00050
C487        C  0.85029242  0.72285648  0.20789605     0.96450
Al488      Al  0.83724887  0.63937100  0.17278630     1.55560
O489        O  0.76601283  0.75305843  0.14378363    -0.75290
C490        C  0.80408109  0.56888490  0.12726617     1.00620
C491        C  0.88334614  0.69242586  0.13180906     0.95500
O492        O  0.85371134  0.71131685  0.11234764    -0.80610
O493        O  0.91340114  0.79173980  0.39536112    -0.80070
C494        C  0.99682458  0.87998465  0.30514770     0.99290
O495        O  0.96425014  0.89368190  0.30925252    -0.69180
O496        O  0.92311741  0.82121469  0.29699192    -0.72780
Al497      Al  0.92983107  0.86354739  0.33482142     1.48980
C498        C  0.91657546  0.78007562  0.29974548     0.94540
O499        O  0.00091348  0.74972046  0.36372054    -0.79000
O500        O  0.00980453  0.85301880  0.43139689    -0.72550
Al501      Al  0.95783026  0.77568347  0.37851481     1.90120
O502        O  0.54361461  0.80137810  0.38695067    -0.71620
O503        O  0.99614259  0.91751780  0.38056258    -0.71470
O504        O  0.52033355  0.85990944  0.33138988    -0.77130
O505        O  0.93276382  0.91062833  0.37015538    -0.75340
O506        O  0.96693588  0.83139841  0.36499412    -1.11470
O507        O  0.88658463  0.83863082  0.35113702    -0.70670
C508        C  0.88375055  0.81057809  0.37587677     1.00050
C509        C  0.53565320  0.76179890  0.37553791     0.96450
Al510      Al  0.01376530  0.85601847  0.38125092     1.55560
O511        O  0.92657791  0.75907228  0.33031574    -0.75290
C512        C  0.96316984  0.93395776  0.38037901     1.00620
C513        C  0.00087879  0.81837657  0.44743988     0.95500
O514        O  0.98655194  0.78360406  0.42936504    -0.80610
O515        O  0.60362716  0.79175598  0.11209758    -0.80070
C516        C  0.52025273  0.87995227  0.20238910     0.99290
O517        O  0.55287152  0.89357050  0.19834375    -0.69180
O518        O  0.59386145  0.82100325  0.21054095    -0.72780
Al519      Al  0.58727155  0.86341182  0.17277746     1.48980
C520        C  0.60042903  0.77988332  0.20772102     0.94540
O521        O  0.51610930  0.74974039  0.14373136    -0.79000
O522        O  0.50734259  0.85310103  0.07611253    -0.72550
Al523      Al  0.55920265  0.77566954  0.12894317     1.90120
O524        O  0.97345384  0.80145579  0.12051674    -0.71620
O525        O  0.52108234  0.91754781  0.12702408    -0.71470
O526        O  0.49673955  0.85993906  0.17610970    -0.77130
O527        O  0.58446035  0.91054991  0.13752797    -0.75340
O528        O  0.55014550  0.83137147  0.14252704    -1.11470
O529        O  0.63050012  0.83845570  0.15646054    -0.70670
C530        C  0.63330031  0.81049889  0.13164050     1.00050
C531        C  0.98138195  0.76186449  0.13191964     0.96450
Al532      Al  0.50335648  0.85607061  0.12626092     1.55560
O533        O  0.59046429  0.75895983  0.17711048    -0.75290
C534        C  0.55409987  0.93395057  0.12731942     1.00620
C535        C  0.51619404  0.81843399  0.06005173     0.95500
O536        O  0.53046773  0.78363941  0.07811307    -0.80610
O537        O  0.66381101  0.29174673  0.39586467    -0.80070
C538        C  0.74721972  0.37994247  0.30559562     0.99290
O539        O  0.71459988  0.39355940  0.30963451    -0.69180
O540        O  0.67360613  0.32098860  0.29742588    -0.72780
Al541      Al  0.68018871  0.36339793  0.33518982     1.48980
C542        C  0.66702404  0.27987109  0.30024402     0.94540
O543        O  0.75133189  0.24973162  0.36424395    -0.79000
O544        O  0.76009788  0.35309216  0.43186793    -0.72550
Al545      Al  0.70823783  0.27565906  0.37902607     1.90120
O546        O  0.79399156  0.30144727  0.38747007    -0.71620
O547        O  0.74637362  0.41754134  0.38095816    -0.71470
O548        O  0.77072602  0.35993123  0.33187826    -0.77130
O549        O  0.68299416  0.41053590  0.37043881    -0.75340
O550        O  0.71730561  0.33136089  0.36544659    -1.11470
O551        O  0.63695078  0.33843886  0.35149535    -0.70670
C552        C  0.63414228  0.31048627  0.37631585     1.00050
C553        C  0.78605999  0.26185588  0.37606361     0.96450
Al554      Al  0.76409564  0.35606267  0.38172289     1.55480
O555        O  0.67697875  0.25894846  0.33085471    -0.75290
C556        C  0.71335433  0.43394133  0.38065316     1.00620
C557        C  0.75124191  0.31842309  0.44792483     0.95500
O558        O  0.73696708  0.28362845  0.42985953    -0.80610
O559        O  0.85404093  0.29171938  0.11261154    -0.80070
C560        C  0.77064718  0.37997619  0.20283593     0.99290
O561        O  0.80321992  0.39367818  0.19872460    -0.69180
O562        O  0.84436277  0.32122699  0.21097379    -0.72780
Al563      Al  0.83762958  0.36355474  0.17314122     1.48980
C564        C  0.85087971  0.28008217  0.20822497     0.94540
O565        O  0.76652491  0.24971776  0.14426130    -0.79000
O566        O  0.75763920  0.35300911  0.07658208    -0.72550
Al567      Al  0.80961009  0.27567666  0.12946161     1.90120
O568        O  0.72383036  0.30137134  0.12103130    -0.71620
O569        O  0.77130626  0.41751241  0.12741882    -0.71470
O570        O  0.74713111  0.35990018  0.17659607    -0.77130
O571        O  0.83468261  0.41063847  0.13780536    -0.75340
O572        O  0.80051635  0.33139581  0.14297965    -1.11470
O573        O  0.88086565  0.33864623  0.15680926    -0.70670
C574        C  0.88369358  0.31057529  0.13208044     1.00050
C575        C  0.73178667  0.26179434  0.13244557     0.96450
Al576      Al  0.75368656  0.35601062  0.12673087     1.55560
O577        O  0.84085952  0.25907104  0.17765908    -0.75290
C578        C  0.80427476  0.43396206  0.12759349     1.00620
C579        C  0.76656060  0.31836613  0.06053787     0.95500
O580        O  0.78088669  0.28359521  0.07861184    -0.80610
O581        O  0.98686192  0.21926685  0.42977761    -0.80070
C582        C  0.99719755  0.12280761  0.30560234     0.99290
O583        O  0.52071304  0.14282714  0.33188208    -0.69180
O584        O  0.54401261  0.20133038  0.38748804    -0.72780
Al585      Al  0.01406840  0.14675439  0.38173007     1.48980
C586        C  0.53612819  0.24091805  0.37607041     0.94540
O587        O  0.92712990  0.24385804  0.33064203    -0.79000
O588        O  0.88692281  0.16432658  0.35146144    -0.72550
Al589      Al  0.95824538  0.22721197  0.37888409     1.90120
O590        O  0.92354293  0.18167306  0.29735734    -0.71620
O591        O  0.93298036  0.09227780  0.37049273    -0.71470
O592        O  0.96458769  0.10917009  0.30966072    -0.77130
O593        O  0.99635165  0.08528140  0.38099450    -0.75340
O594        O  0.96728242  0.17145751  0.36540287    -1.11470
O595        O  0.51003866  0.14981257  0.43187270    -0.70670
C596        C  0.00116755  0.18451065  0.44789130     1.00050
C597        C  0.91712587  0.22284417  0.30007740     0.96450
Al598      Al  0.93016276  0.13935687  0.33518567     1.55560
O599        O  0.00141870  0.25304985  0.36417904    -0.75290
C600        C  0.96333840  0.06887553  0.38069974     1.00620
C601        C  0.88408402  0.19241339  0.37617424     0.95500
O602        O  0.91372309  0.21130947  0.39562831    -0.80610
O603        O  0.53100316  0.21928962  0.07868633    -0.80070
C604        C  0.52056438  0.12277324  0.20279711     0.99290
O605        O  0.49706182  0.14285109  0.17654612    -0.69180
O606        O  0.97379007  0.20139941  0.12096699    -0.72780
Al607      Al  0.50368116  0.14679747  0.12669263     1.48980
C608        C  0.98170518  0.24097749  0.13239057     0.94540
O609        O  0.59069398  0.24374298  0.17787574    -0.79000
O610        O  0.63086414  0.16416264  0.15693023    -0.72550
Al611      Al  0.55959548  0.22718791  0.12960131     1.90120
O612        O  0.59430418  0.18147699  0.21106899    -0.71620
O613        O  0.58467989  0.09220044  0.13780363    -0.71470
O614        O  0.55313617  0.10906053  0.19869442    -0.77130
O615        O  0.52130457  0.08530557  0.12736438    -0.75340
O616        O  0.55050300  0.17142541  0.14302440    -1.11470
O617        O  0.50770389  0.14988100  0.07655652    -0.70670
C618        C  0.51664903  0.18455577  0.06055746     1.00050
C619        C  0.60071723  0.22265979  0.20840606     0.96450
Al620      Al  0.58759277  0.13922749  0.17318439     1.55560
O621        O  0.51642584  0.25306531  0.14429667    -0.75290
C622        C  0.55427962  0.06886677  0.12756665     1.00620
C623        C  0.63374366  0.19232741  0.13228696     0.95500
O624        O  0.60412849  0.21129988  0.11287106    -0.80610
C625        C  0.50696909  0.18455255  0.48759530    -0.11540
C626        C  0.51087576  0.18458076  0.02085637    -0.13100
C627        C  0.50617791  0.11740887  0.26976244    -0.11540
C628        C  0.51161368  0.11739610  0.23865209    -0.13100
C629        C  0.67144509  0.20839479  0.13000569    -0.11540
C630        C  0.70051503  0.23029615  0.13121147    -0.13100
C631        C  0.95041667  0.27247185  0.13106147    -0.11540
C632        C  0.92136538  0.29442216  0.12979989    -0.13100
C633        C  0.89474902  0.24441435  0.26796760    -0.11540
C634        C  0.87336263  0.25854262  0.24029933    -0.13100
C635        C  0.56743613  0.27237801  0.37738628    -0.11540
C636        C  0.59648521  0.29432086  0.37862154    -0.13100
C637        C  0.81734509  0.23038968  0.37730725    -0.11540
C638        C  0.84640623  0.20849181  0.37849487    -0.13100
C639        C  0.64452010  0.25828461  0.26820297    -0.11540
C640        C  0.62311223  0.24416961  0.24054039    -0.13100
C641        C  0.75699628  0.31845826  0.48761064    -0.11540
C642        C  0.76082606  0.31842400  0.02085417    -0.13100
C643        C  0.76169777  0.38537063  0.23868287    -0.11540
C644        C  0.75622998  0.38535749  0.26977705    -0.13100
C645        C  0.55710479  0.98112342  0.12003566    -0.11540
C646        C  0.55717485  0.02172171  0.12011851    -0.13100
C647        C  0.96033776  0.02169639  0.38796316    -0.11540
C648        C  0.96027912  0.98109786  0.38785091    -0.13100
C649        C  0.50660951  0.81843702  0.48712290    -0.11540
C650        C  0.51043761  0.81847169  0.02036604    -0.13100
C651        C  0.51125031  0.88536875  0.23821070    -0.11540
C652        C  0.00578232  0.88538135  0.26930470    -0.13100
C653        C  0.80708617  0.52170431  0.12000778    -0.11540
C654        C  0.80715702  0.48110517  0.12012298    -0.13100
C655        C  0.67095318  0.79433154  0.12933019    -0.11540
C656        C  0.69999818  0.77238654  0.13056540    -0.13100
C657        C  0.95009325  0.73039863  0.13068044    -0.11540
C658        C  0.92102815  0.70850287  0.12949334    -0.13100
C659        C  0.87267969  0.74442078  0.24000658    -0.11540
C660        C  0.89407833  0.75853982  0.26767344    -0.13100
C661        C  0.71026367  0.52171460  0.38784618    -0.11540
C662        C  0.71034566  0.48111570  0.38793188    -0.13100
C663        C  0.56692067  0.73029945  0.37677560    -0.11540
C664        C  0.59598692  0.70839620  0.37798187    -0.13100
C665        C  0.84607608  0.79442397  0.37815365    -0.11540
C666        C  0.81702092  0.77247580  0.37689182    -0.13100
C667        C  0.62292287  0.75829102  0.23976124    -0.11540
C668        C  0.64431853  0.74416696  0.26742528    -0.13100
C669        C  0.75656123  0.68459438  0.48710451    -0.11540
C670        C  0.76046954  0.68456634  0.02036597    -0.13100
C671        C  0.75577723  0.61740784  0.26929802    -0.11540
C672        C  0.76121277  0.61742031  0.23818746    -0.13100
O673        O  0.73643128  0.71929952  0.92927486    -0.80070
C674        C  0.74683524  0.62278327  0.80515707     0.99290
O675        O  0.77034541  0.64286182  0.83140557    -0.69180
O676        O  0.79363786  0.70140673  0.88698979    -0.72780
Al677      Al  0.76373966  0.64680626  0.88126354     1.48980
C678        C  0.78572820  0.74098262  0.87556486     0.94540
O679        O  0.67674234  0.74374553  0.83008734    -0.79000
O680        O  0.63655877  0.66414609  0.85106537    -0.72550
Al681      Al  0.70783744  0.72719619  0.87836022     1.90120
O682        O  0.67308471  0.68146448  0.79690472    -0.71620
O683        O  0.68274772  0.59219048  0.87017571    -0.71470
O684        O  0.71426519  0.60906593  0.80926664    -0.77130
O685        O  0.74612025  0.58531161  0.88059182    -0.75340
O686        O  0.71691727  0.67142898  0.86494029    -1.11470
O687        O  0.75972512  0.64989137  0.93140250    -0.70670
C688        C  0.75078436  0.68456699  0.94740278     1.00050
C689        C  0.66669901  0.72265357  0.79956210     0.96450
Al690      Al  0.67981860  0.63922037  0.83479279     1.55560
O691        O  0.75100922  0.75306849  0.86365936    -0.75290
C692        C  0.71314996  0.56886276  0.88039961     1.00620
C693        C  0.63368562  0.69233097  0.87569622     0.95500
O694        O  0.66330252  0.71132395  0.89509422    -0.80610
O695        O  0.78057590  0.71927766  0.57818791    -0.80070
C696        C  0.77020129  0.62281680  0.70235064     0.99290
O697        O  0.74669301  0.64283418  0.67606736    -0.69180
O698        O  0.72341449  0.70133869  0.62046327    -0.72780
Al699      Al  0.75335192  0.64676191  0.62622383     1.48980
C700        C  0.73130252  0.74092638  0.63188478     0.94540
O701        O  0.84029995  0.74386889  0.67733085    -0.79000
O702        O  0.88049891  0.66434457  0.65652328    -0.72550
Al703      Al  0.80918681  0.72722187  0.62908475     1.90120
O704        O  0.84385928  0.68168818  0.71061480    -0.71620
O705        O  0.83443860  0.59229215  0.63747998    -0.71470
O706        O  0.80281228  0.60918047  0.69829911    -0.77130
O707        O  0.77106564  0.58528761  0.62696079    -0.75340
O708        O  0.80013871  0.67146778  0.64256178    -1.11470
O709        O  0.75739363  0.64982134  0.57608466    -0.70670
C710        C  0.76626914  0.68452156  0.56007009     1.00050
C711        C  0.85029242  0.72285647  0.70789605     0.96450
Al712      Al  0.83724887  0.63937100  0.67278630     1.55560
O713        O  0.76601283  0.75305842  0.64378363    -0.75290
C714        C  0.80408109  0.56888490  0.62726617     1.00620
C715        C  0.88334614  0.69242586  0.63180907     0.95500
O716        O  0.85371134  0.71131685  0.61234764    -0.80610
O717        O  0.91340114  0.79173981  0.89536112    -0.80070
C718        C  0.99682458  0.87998464  0.80514770     0.99290
O719        O  0.96425015  0.89368189  0.80925252    -0.69180
O720        O  0.92311741  0.82121468  0.79699192    -0.72780
Al721      Al  0.92983107  0.86354738  0.83482142     1.48980
C722        C  0.91657547  0.78007562  0.79974548     0.94540
O723        O  0.00091348  0.74972046  0.86372054    -0.79000
O724        O  0.00980453  0.85301880  0.93139689    -0.72550
Al725      Al  0.95783026  0.77568346  0.87851481     1.90120
O726        O  0.54361461  0.80137810  0.88695067    -0.71620
O727        O  0.99614259  0.91751779  0.88056258    -0.71470
O728        O  0.52033354  0.85990944  0.83138988    -0.77130
O729        O  0.93276382  0.91062833  0.87015537    -0.75340
O730        O  0.96693589  0.83139841  0.86499412    -1.11470
O731        O  0.88658463  0.83863082  0.85113701    -0.70670
C732        C  0.88375055  0.81057809  0.87587677     1.00050
C733        C  0.53565319  0.76179890  0.87553791     0.96450
Al734      Al  0.01376530  0.85601846  0.88125092     1.55560
O735        O  0.92657791  0.75907227  0.83031574    -0.75290
C736        C  0.96316984  0.93395776  0.88037901     1.00620
C737        C  0.00087879  0.81837657  0.94743988     0.95500
O738        O  0.98655194  0.78360406  0.92936504    -0.80610
O739        O  0.60362716  0.79175598  0.61209758    -0.80070
C740        C  0.52025273  0.87995226  0.70238910     0.99290
O741        O  0.55287152  0.89357049  0.69834375    -0.69180
O742        O  0.59386145  0.82100324  0.71054095    -0.72780
Al743      Al  0.58727155  0.86341181  0.67277746     1.48980
C744        C  0.60042903  0.77988332  0.70772102     0.94540
O745        O  0.51610930  0.74974038  0.64373136    -0.79000
O746        O  0.50734259  0.85310103  0.57611253    -0.72550
Al747      Al  0.55920265  0.77566954  0.62894317     1.90120
O748        O  0.97345384  0.80145579  0.62051674    -0.71620
O749        O  0.52108234  0.91754781  0.62702408    -0.71470
O750        O  0.49673955  0.85993906  0.67610970    -0.77130
O751        O  0.58446035  0.91054990  0.63752798    -0.75340
O752        O  0.55014550  0.83137147  0.64252704    -1.11470
O753        O  0.63050012  0.83845570  0.65646054    -0.70670
C754        C  0.63330031  0.81049889  0.63164050     1.00050
C755        C  0.98138195  0.76186449  0.63191964     0.96450
Al756      Al  0.50335648  0.85607061  0.62626092     1.55560
O757        O  0.59046429  0.75895982  0.67711047    -0.75290
C758        C  0.55409987  0.93395057  0.62731942     1.00620
C759        C  0.51619403  0.81843399  0.56005173     0.95500
O760        O  0.53046772  0.78363941  0.57811307    -0.80610
O761        O  0.66381101  0.29174673  0.89586467    -0.80070
C762        C  0.74721971  0.37994247  0.80559562     0.99290
O763        O  0.71459988  0.39355940  0.80963451    -0.69180
O764        O  0.67360612  0.32098860  0.79742588    -0.72780
Al765      Al  0.68018871  0.36339793  0.83518982     1.48980
C766        C  0.66702404  0.27987109  0.80024402     0.94540
O767        O  0.75133189  0.24973162  0.86424395    -0.79000
O768        O  0.76009789  0.35309216  0.93186793    -0.72550
Al769      Al  0.70823783  0.27565906  0.87902607     1.90120
O770        O  0.79399156  0.30144727  0.88747007    -0.71620
O771        O  0.74637362  0.41754134  0.88095817    -0.71470
O772        O  0.77072602  0.35993123  0.83187826    -0.77130
O773        O  0.68299416  0.41053590  0.87043881    -0.75340
O774        O  0.71730561  0.33136089  0.86544659    -1.11470
O775        O  0.63695078  0.33843885  0.85149536    -0.70670
C776        C  0.63414228  0.31048626  0.87631585     1.00050
C777        C  0.78605999  0.26185588  0.87606361     0.96450
Al778      Al  0.76409564  0.35606267  0.88172289     1.55480
O779        O  0.67697875  0.25894846  0.83085471    -0.75290
C780        C  0.71335433  0.43394133  0.88065316     1.00620
C781        C  0.75124192  0.31842309  0.94792483     0.95500
O782        O  0.73696709  0.28362844  0.92985953    -0.80610
O783        O  0.85404093  0.29171939  0.61261154    -0.80070
C784        C  0.77064718  0.37997619  0.70283593     0.99290
O785        O  0.80321992  0.39367818  0.69872460    -0.69180
O786        O  0.84436277  0.32122698  0.71097380    -0.72780
Al787      Al  0.83762958  0.36355474  0.67314122     1.48980
C788        C  0.85087971  0.28008216  0.70822497     0.94540
O789        O  0.76652491  0.24971776  0.64426129    -0.79000
O790        O  0.75763920  0.35300911  0.57658208    -0.72550
Al791      Al  0.80961009  0.27567666  0.62946161     1.90120
O792        O  0.72383036  0.30137134  0.62103130    -0.71620
O793        O  0.77130626  0.41751241  0.62741882    -0.71470
O794        O  0.74713111  0.35990018  0.67659607    -0.77130
O795        O  0.83468261  0.41063847  0.63780537    -0.75340
O796        O  0.80051635  0.33139581  0.64297965    -1.11470
O797        O  0.88086565  0.33864622  0.65680927    -0.70670
C798        C  0.88369358  0.31057529  0.63208044     1.00050
C799        C  0.73178667  0.26179434  0.63244557     0.96450
Al800      Al  0.75368656  0.35601062  0.62673087     1.55560
O801        O  0.84085952  0.25907103  0.67765908    -0.75290
C802        C  0.80427477  0.43396205  0.62759349     1.00620
C803        C  0.76656060  0.31836614  0.56053787     0.95500
O804        O  0.78088669  0.28359521  0.57861183    -0.80610
O805        O  0.98686192  0.21926684  0.92977761    -0.80070
C806        C  0.99719755  0.12280760  0.80560234     0.99290
O807        O  0.52071304  0.14282713  0.83188208    -0.69180
O808        O  0.54401261  0.20133038  0.88748804    -0.72780
Al809      Al  0.01406840  0.14675439  0.88173007     1.48980
C810        C  0.53612819  0.24091805  0.87607041     0.94540
O811        O  0.92712991  0.24385804  0.83064203    -0.79000
O812        O  0.88692281  0.16432657  0.85146143    -0.72550
Al813      Al  0.95824538  0.22721197  0.87888409     1.90120
O814        O  0.92354293  0.18167306  0.79735734    -0.71620
O815        O  0.93298036  0.09227780  0.87049273    -0.71470
O816        O  0.96458769  0.10917009  0.80966072    -0.77130
O817        O  0.99635165  0.08528140  0.88099450    -0.75340
O818        O  0.96728242  0.17145751  0.86540287    -1.11470
O819        O  0.51003866  0.14981257  0.93187270    -0.70670
C820        C  0.00116755  0.18451064  0.94789130     1.00050
C821        C  0.91712587  0.22284416  0.80007740     0.96450
Al822      Al  0.93016276  0.13935686  0.83518566     1.55560
O823        O  0.00141870  0.25304985  0.86417904    -0.75290
C824        C  0.96333840  0.06887553  0.88069974     1.00620
C825        C  0.88408402  0.19241339  0.87617424     0.95500
O826        O  0.91372309  0.21130947  0.89562830    -0.80610
O827        O  0.53100316  0.21928962  0.57868633    -0.80070
C828        C  0.52056438  0.12277324  0.70279712     0.99290
O829        O  0.49706182  0.14285109  0.67654612    -0.69180
O830        O  0.97379007  0.20139941  0.62096699    -0.72780
Al831      Al  0.50368116  0.14679747  0.62669263     1.48980
C832        C  0.98170518  0.24097748  0.63239057     0.94540
O833        O  0.59069398  0.24374298  0.67787574    -0.79000
O834        O  0.63086414  0.16416264  0.65693023    -0.72550
Al835      Al  0.55959548  0.22718791  0.62960131     1.90120
O836        O  0.59430418  0.18147698  0.71106899    -0.71620
O837        O  0.58467989  0.09220044  0.63780363    -0.71470
O838        O  0.55313617  0.10906053  0.69869442    -0.77130
O839        O  0.52130458  0.08530557  0.62736438    -0.75340
O840        O  0.55050301  0.17142541  0.64302441    -1.11470
O841        O  0.50770389  0.14988100  0.57655652    -0.70670
C842        C  0.51664903  0.18455577  0.56055746     1.00050
C843        C  0.60071723  0.22265978  0.70840606     0.96450
Al844      Al  0.58759277  0.13922749  0.67318439     1.55560
O845        O  0.51642584  0.25306530  0.64429667    -0.75290
C846        C  0.55427962  0.06886677  0.62756665     1.00620
C847        C  0.63374366  0.19232740  0.63228696     0.95500
O848        O  0.60412849  0.21129988  0.61287106    -0.80610
C849        C  0.50696909  0.18455255  0.98759530    -0.11540
C850        C  0.51087576  0.18458075  0.52085637    -0.13100
C851        C  0.50617792  0.11740886  0.76976244    -0.11540
C852        C  0.51161368  0.11739610  0.73865209    -0.13100
C853        C  0.67144509  0.20839479  0.63000569    -0.11540
C854        C  0.70051503  0.23029615  0.63121147    -0.13100
C855        C  0.95041667  0.27247185  0.63106147    -0.11540
C856        C  0.92136538  0.29442216  0.62979989    -0.13100
C857        C  0.89474902  0.24441435  0.76796760    -0.11540
C858        C  0.87336263  0.25854262  0.74029933    -0.13100
C859        C  0.56743613  0.27237801  0.87738629    -0.11540
C860        C  0.59648521  0.29432085  0.87862154    -0.13100
C861        C  0.81734510  0.23038968  0.87730724    -0.11540
C862        C  0.84640623  0.20849181  0.87849486    -0.13100
C863        C  0.64452010  0.25828461  0.76820297    -0.11540
C864        C  0.62311223  0.24416960  0.74054039    -0.13100
C865        C  0.75699629  0.31845825  0.98761065    -0.11540
C866        C  0.76082606  0.31842401  0.52085417    -0.13100
C867        C  0.76169777  0.38537063  0.73868287    -0.11540
C868        C  0.75622998  0.38535748  0.76977705    -0.13100
C869        C  0.55710479  0.98112342  0.62003566    -0.11540
C870        C  0.55717486  0.02172171  0.62011851    -0.13100
C871        C  0.96033776  0.02169639  0.88796316    -0.11540
C872        C  0.96027912  0.98109786  0.88785090    -0.13100
C873        C  0.50660951  0.81843701  0.98712290    -0.11540
C874        C  0.51043761  0.81847169  0.52036604    -0.13100
C875        C  0.51125031  0.88536875  0.73821070    -0.11540
C876        C  0.00578232  0.88538135  0.76930470    -0.13100
C877        C  0.80708618  0.52170431  0.62000778    -0.11540
C878        C  0.80715702  0.48110517  0.62012299    -0.13100
C879        C  0.67095318  0.79433154  0.62933019    -0.11540
C880        C  0.69999818  0.77238654  0.63056540    -0.13100
C881        C  0.95009325  0.73039863  0.63068044    -0.11540
C882        C  0.92102814  0.70850287  0.62949335    -0.13100
C883        C  0.87267969  0.74442078  0.74000658    -0.11540
C884        C  0.89407833  0.75853981  0.76767344    -0.13100
C885        C  0.71026367  0.52171459  0.88784618    -0.11540
C886        C  0.71034566  0.48111570  0.88793189    -0.13100
C887        C  0.56692067  0.73029945  0.87677560    -0.11540
C888        C  0.59598692  0.70839620  0.87798187    -0.13100
C889        C  0.84607608  0.79442396  0.87815364    -0.11540
C890        C  0.81702092  0.77247579  0.87689182    -0.13100
C891        C  0.62292286  0.75829101  0.73976124    -0.11540
C892        C  0.64431853  0.74416696  0.76742528    -0.13100
C893        C  0.75656123  0.68459438  0.98710451    -0.11540
C894        C  0.76046954  0.68456634  0.52036597    -0.13100
C895        C  0.75577723  0.61740784  0.76929802    -0.11540
C896        C  0.76121277  0.61742031  0.73818746    -0.13100
loop_ 
_geom_bond_atom_site_label_1 
_geom_bond_atom_site_label_2 
_geom_bond_distance 
_geom_bond_site_symmetry_2 
_ccdc_geom_bond_type 
O1           C16   1.269       .  A
O1           Al9   1.928       .  S
C2           O12   1.265       .  A
C2            O3   1.267       .  A
C2          C223   1.444       .  S
O3           Al5   1.918       .  S
O4            C6   1.258       .  A
O4           Al5   1.920       .  S
Al5          O13   1.928       .  S
Al5          O15   1.896       .  S
Al5          O14   1.780       .  S
C6           O19   1.255       .  A
C6          C218   1.441       .  S
O7           C17   1.266       .  A
O7           Al9   1.925       .  S
O8           C21   1.259       .  A
O8          Al18   1.922       .  S
Al9          O22   1.885       .  S
Al9          O19   1.902       .  S
Al9          O14   1.780       .  S
O10          C17   1.252       .  A
O10         Al18   1.854       .  S
O11          C20   1.260       .  A
O11         Al18   1.900       .  S
O12         Al18   1.931       .  S
O13          C20   1.263       .  A
O14         Al18   1.784       .  S
O15          C16   1.265       .  A
C16         C221   1.434       .  S
C17         C220   1.414       .  S
C20         C213   1.436       .  S
C21          O22   1.254       .  A
C21         C216   1.438       .  S
O23          C38   1.269       .  A
O23         Al31   1.928       .  S
C24          O34   1.265       .  A
C24          O25   1.267       .  A
C24         C224   1.444       .  S
O25         Al27   1.918       .  S
O26          C28   1.258       .  A
O26         Al27   1.920       .  S
Al27         O35   1.929       .  S
Al27         O37   1.897       .  S
Al27         O36   1.780       .  S
C28          O41   1.255       .  A
C28         C208   1.441       .  S
O29          C39   1.266       .  A
O29         Al31   1.925       .  S
O30          C43   1.259       .  A
O30         Al40   1.922       .  S
Al31         O44   1.885       .  S
Al31         O41   1.901       .  S
Al31         O36   1.780       .  S
O32          C39   1.252       .  A
O32         Al40   1.854       .  S
O33          C42   1.259       .  A
O33         Al40   1.900       .  S
O34         Al40   1.931       .  S
O35          C42   1.263       .  A
O36         Al40   1.784       .  S
O37          C38   1.265       .  A
C38         C222   1.434       .  S
C39         C211   1.414       .  S
C42         C205   1.436       .  S
C43          O44   1.254       .  A
C43         C210   1.438       .  S
O45          C60   1.254       .  A
O45         Al53   1.886       .  S
C46          O47   1.265       .  A
C46         O504   1.267       .  A
C46         C204   1.444       .  S
O47         Al49   1.931       .  S
O48          C50   1.252       .  A
O48         Al49   1.854       .  S
Al49         O57   1.900       .  S
Al49         O59   1.922       .  S
Al49         O58   1.784       .  S
C50          O63   1.266       .  A
C50         C212   1.414       .  S
O51         C509   1.255       .  A
O51         Al53   1.902       .  S
O52          C65   1.265       .  A
O52         Al62   1.896       .  S
Al53         O66   1.928       .  S
Al53         O63   1.925       .  S
Al53         O58   1.780       .  S
O54          C61   1.258       .  A
O54        Al510   1.920       .  S
O55          C64   1.263       .  A
O55         Al62   1.928       .  S
O56         C494   1.267   1_455  A
O56        Al510   1.917       .  S
O57          C64   1.260       .  A
O58         Al62   1.780       .  S
O59          C60   1.259       .  A
C60         C217   1.438       .  S
C61         O499   1.255       .  A
C61         C215   1.441       .  S
Al62        O502   1.920       .  S
Al62        O504   1.917       .  S
C64         C200   1.436       .  S
C65          O66   1.268       .  A
C65         C649   1.434       .  S
O67          C82   1.254       .  A
O67         Al75   1.886       .  S
C68          O78   1.267   1_455  A
C68          O69   1.265       .  A
C68         C203   1.444       .  S
O69         Al71   1.931       .  S
O70          C72   1.252       .  A
O70         Al71   1.854       .  S
Al71         O79   1.900       .  S
Al71         O81   1.922       .  S
Al71         O80   1.784       .  S
C72          O85   1.266       .  A
C72         C219   1.414       .  S
O73         C531   1.255   1_455  A
O73         Al75   1.902       .  S
O74          C87   1.265       .  A
O74         Al84   1.896       .  S
Al75         O88   1.927       .  S
Al75         O85   1.925       .  S
Al75         O80   1.780       .  S
O76          C83   1.258       .  A
O76        Al532   1.921       .  S
O77          C86   1.263       .  A
O77         Al84   1.929       .  S
O78         Al84   1.917   1_655  S
O79          C86   1.260       .  A
O80         Al84   1.779       .  S
O81          C82   1.259       .  A
C82         C207   1.438       .  S
C83         O521   1.255       .  A
C83         C209   1.441       .  S
Al84        O524   1.921   1_455  S
C86         C197   1.436       .  S
C87          O88   1.268       .  A
C87         C202   1.434       .  S
O89         C104   1.254       .  A
O89         Al97   1.886       .  S
C90         O100   1.267       .  A
C90          O91   1.265       .  A
C90         C196   1.444       .  S
O91         Al93   1.931       .  S
O92          C94   1.252       .  A
O92         Al93   1.854       .  S
Al93        O101   1.900       .  S
Al93        O103   1.922       .  S
Al93        O102   1.784       .  S
C94         O107   1.266       .  A
C94         C191   1.414       .  S
O95         C105   1.255       .  A
O95         Al97   1.902       .  S
O96         C109   1.265       .  A
O96        Al106   1.896       .  S
Al97        O110   1.927       .  S
Al97        O107   1.925       .  S
Al97        O102   1.780       .  S
O98         C105   1.258       .  A
O98        Al106   1.921       .  S
O99         C108   1.264       .  A
O99        Al106   1.929       .  S
O100       Al106   1.917       .  S
O101        C108   1.260       .  A
O102       Al106   1.779       .  S
O103        C104   1.259       .  A
C104        C188   1.438       .  S
C105        C189   1.441       .  S
C108        C214   1.436       .  S
C109        O110   1.268       .  A
C109        C193   1.434       .  S
O111        C126   1.254       .  A
O111       Al119   1.886       .  S
C112        O122   1.267       .  A
C112        O113   1.265       .  A
C112        C195   1.444       .  S
O113       Al115   1.931       .  S
O114        C116   1.252       .  A
O114       Al115   1.854       .  S
Al115       O123   1.900       .  S
Al115       O125   1.922       .  S
Al115       O124   1.784       .  S
C116        O129   1.266       .  A
C116        C186   1.414       .  S
O117        C127   1.255       .  A
O117       Al119   1.902       .  S
O118        C131   1.265       .  A
O118       Al128   1.896       .  S
Al119       O132   1.928       .  S
Al119       O129   1.925       .  S
Al119       O124   1.780       .  S
O120        C127   1.258       .  A
O120       Al128   1.920       .  S
O121        C130   1.263       .  A
O121       Al128   1.928       .  S
O122       Al128   1.917       .  S
O123        C130   1.260       .  A
O124       Al128   1.780       .  S
O125        C126   1.259       .  A
C126        C184   1.438       .  S
C127        C182   1.441       .  S
C130        C206   1.436       .  S
C131        O132   1.269       .  A
C131        C194   1.434       .  S
O133        C148   1.269       .  A
O133       Al141   1.928       .  S
C134        O144   1.265       .  A
C134        O583   1.267       .  A
C134        C627   1.444       .  S
O135        C582   1.267   1_455  A
O135       Al585   1.918       .  S
O136        C138   1.258       .  A
O136       Al585   1.920       .  S
Al137       O145   1.929       .  S
Al137       O583   1.918       .  S
Al137       O584   1.920       .  S
Al137       O595   1.897       .  S
Al137       O146   1.780       .  S
C138        O599   1.255       .  A
C138        C187   1.441       .  S
O139        C149   1.266       .  A
O139       Al141   1.925       .  S
O140        C153   1.259       .  A
O140       Al150   1.922       .  S
Al141       O154   1.885       .  S
Al141       O151   1.901       .  S
Al141       O146   1.780       .  S
O142        C149   1.252       .  A
O142       Al150   1.854       .  S
O143        C152   1.260       .  A
O143       Al150   1.900       .  S
O144       Al150   1.931       .  S
O145        C152   1.263       .  A
O146       Al150   1.784       .  S
O147        C596   1.265       .  A
O147       Al585   1.897       .  S
C148        O595   1.265       .  A
C148        C625   1.434       .  S
C149        C185   1.414       .  S
O151        C586   1.255       .  A
C152        C199   1.436       .  S
C153        O154   1.254       .  A
C153        C190   1.438       .  S
O155        C170   1.269       .  A
O155       Al163   1.928       .  S
C156        O166   1.265       .  A
C156        O157   1.267   1_455  A
C156        C180   1.444       .  S
O157       Al159   1.918   1_655  S
O158        C160   1.258       .  A
O158       Al607   1.920       .  S
Al159       O167   1.928       .  S
Al159       O169   1.896       .  S
Al159       O606   1.920   1_455  S
Al159       O168   1.780       .  S
C160        O621   1.255       .  A
C160        C183   1.441       .  S
O161        C171   1.266       .  A
O161       Al163   1.925       .  S
O162        C175   1.259       .  A
O162       Al172   1.922       .  S
Al163       O176   1.885       .  S
Al163       O173   1.902       .  S
Al163       O168   1.780       .  S
O164        C171   1.252       .  A
O164       Al172   1.854       .  S
O165        C174   1.260       .  A
O165       Al172   1.900       .  S
O166       Al172   1.931       .  S
O167        C174   1.263       .  A
O168       Al172   1.784       .  S
O169        C170   1.265       .  A
C170        C178   1.434       .  S
C171        C192   1.414       .  S
O173        C608   1.255   1_455  A
C174        C198   1.436       .  S
C175        O176   1.254       .  A
C175        C181   1.438       .  S
C177        C596   1.434       .  S
C177        C402   1.205       .  T
C178        C401   1.205   1_554  T
C179        C582   1.444   1_455  S
C179        C180   1.212       .  T
C181        C182   1.209       .  T
C183        C184   1.209       .  T
C185        C186   1.195       .  T
C187        C188   1.209       .  T
C189        C190   1.209       .  T
C191        C192   1.195       .  T
C193        C418   1.205       .  T
C194        C417   1.205   1_554  T
C195        C196   1.211       .  T
C197        C198   1.206   1_565  T
C199        C200   1.206   1_545  T
C201        C513   1.434       .  S
C201        C426   1.205       .  T
C202        C425   1.205   1_554  T
C203        C652   1.211       .  T
C204        C651   1.211       .  T
C205        C206   1.206       .  T
C207        C208   1.209       .  T
C209        C210   1.209       .  T
C211        C212   1.195       .  T
C213        C214   1.206       .  T
C215        C216   1.209       .  T
C217        C218   1.209       .  T
C219        C220   1.195       .  T
C221        C446   1.205       .  T
C222        C445   1.205   1_554  T
C223        C224   1.212       .  T
O225        C240   1.269       .  A
O225       Al233   1.928       .  S
C226        O236   1.265       .  A
C226        O227   1.267       .  A
C226        C447   1.444       .  S
O227       Al229   1.918       .  S
O228        C230   1.258       .  A
O228       Al229   1.920       .  S
Al229       O237   1.928       .  S
Al229       O239   1.896       .  S
Al229       O238   1.780       .  S
C230        O243   1.255       .  A
C230        C442   1.441       .  S
O231        C241   1.266       .  A
O231       Al233   1.925       .  S
O232        C245   1.259       .  A
O232       Al242   1.922       .  S
Al233       O246   1.885       .  S
Al233       O243   1.902       .  S
Al233       O238   1.780       .  S
O234        C241   1.252       .  A
O234       Al242   1.854       .  S
O235        C244   1.260       .  A
O235       Al242   1.900       .  S
O236       Al242   1.931       .  S
O237        C244   1.263       .  A
O238       Al242   1.784       .  S
O239        C240   1.265       .  A
C240        C445   1.434       .  S
C241        C444   1.414       .  S
C244        C437   1.436       .  S
C245        O246   1.254       .  A
C245        C440   1.438       .  S
O247        C262   1.269       .  A
O247       Al255   1.928       .  S
C248        O258   1.265       .  A
C248        O249   1.267       .  A
C248        C448   1.444       .  S
O249       Al251   1.918       .  S
O250        C252   1.258       .  A
O250       Al251   1.920       .  S
Al251       O259   1.929       .  S
Al251       O261   1.897       .  S
Al251       O260   1.780       .  S
C252        O265   1.255       .  A
C252        C432   1.441       .  S
O253        C263   1.266       .  A
O253       Al255   1.925       .  S
O254        C267   1.259       .  A
O254       Al264   1.922       .  S
Al255       O268   1.885       .  S
Al255       O265   1.901       .  S
Al255       O260   1.780       .  S
O256        C263   1.252       .  A
O256       Al264   1.854       .  S
O257        C266   1.259       .  A
O257       Al264   1.900       .  S
O258       Al264   1.931       .  S
O259        C266   1.263       .  A
O260       Al264   1.784       .  S
O261        C262   1.265       .  A
C262        C446   1.434       .  S
C263        C435   1.414       .  S
C266        C429   1.436       .  S
C267        O268   1.254       .  A
C267        C434   1.438       .  S
O269        C284   1.254       .  A
O269       Al277   1.886       .  S
C270        O728   1.267       .  A
C270        O271   1.265       .  A
C270        C428   1.444       .  S
O271       Al273   1.931       .  S
O272        C274   1.252       .  A
O272       Al273   1.854       .  S
Al273       O281   1.900       .  S
Al273       O283   1.922       .  S
Al273       O282   1.784       .  S
C274        O287   1.266       .  A
C274        C436   1.414       .  S
O275        C733   1.255       .  A
O275       Al277   1.902       .  S
O276        C289   1.265       .  A
O276       Al286   1.896       .  S
Al277       O290   1.928       .  S
Al277       O287   1.925       .  S
Al277       O282   1.780       .  S
O278        C285   1.258       .  A
O278       Al734   1.920       .  S
O279        C288   1.263       .  A
O279       Al286   1.928       .  S
O280        C718   1.267   1_455  A
O280       Al734   1.917       .  S
O281        C288   1.260       .  A
O282       Al286   1.780       .  S
O283        C284   1.259       .  A
C284        C441   1.438       .  S
C285        O723   1.255       .  A
C285        C439   1.441       .  S
Al286       O726   1.920       .  S
Al286       O728   1.917       .  S
C288        C424   1.436       .  S
C289        O290   1.268       .  A
C289        C873   1.434       .  S
O291        C306   1.254       .  A
O291       Al299   1.886       .  S
C292        O302   1.267   1_455  A
C292        O293   1.265       .  A
C292        C427   1.444       .  S
O293       Al295   1.931       .  S
O294        C296   1.252       .  A
O294       Al295   1.854       .  S
Al295       O303   1.900       .  S
Al295       O305   1.922       .  S
Al295       O304   1.784       .  S
C296        O309   1.266       .  A
C296        C443   1.414       .  S
O297        C755   1.255   1_455  A
O297       Al299   1.902       .  S
O298        C311   1.265       .  A
O298       Al308   1.896       .  S
Al299       O312   1.927       .  S
Al299       O309   1.925       .  S
Al299       O304   1.780       .  S
O300        C307   1.258       .  A
O300       Al756   1.921       .  S
O301        C310   1.263       .  A
O301       Al308   1.929       .  S
O302       Al308   1.917   1_655  S
O303        C310   1.260       .  A
O304       Al308   1.779       .  S
O305        C306   1.259       .  A
C306        C431   1.438       .  S
C307        O745   1.255       .  A
C307        C433   1.441       .  S
Al308       O748   1.921   1_455  S
C310        C421   1.436       .  S
C311        O312   1.268       .  A
C311        C426   1.434       .  S
O313        C328   1.254       .  A
O313       Al321   1.886       .  S
C314        O324   1.267       .  A
C314        O315   1.265       .  A
C314        C420   1.444       .  S
O315       Al317   1.931       .  S
O316        C318   1.252       .  A
O316       Al317   1.854       .  S
Al317       O325   1.900       .  S
Al317       O327   1.922       .  S
Al317       O326   1.784       .  S
C318        O331   1.266       .  A
C318        C415   1.414       .  S
O319        C329   1.255       .  A
O319       Al321   1.902       .  S
O320        C333   1.265       .  A
O320       Al330   1.896       .  S
Al321       O334   1.927       .  S
Al321       O331   1.925       .  S
Al321       O326   1.780       .  S
O322        C329   1.258       .  A
O322       Al330   1.921       .  S
O323        C332   1.264       .  A
O323       Al330   1.929       .  S
O324       Al330   1.917       .  S
O325        C332   1.260       .  A
O326       Al330   1.779       .  S
O327        C328   1.259       .  A
C328        C412   1.438       .  S
C329        C413   1.441       .  S
C332        C438   1.436       .  S
C333        O334   1.268       .  A
C333        C417   1.434       .  S
O335        C350   1.254       .  A
O335       Al343   1.886       .  S
C336        O346   1.267       .  A
C336        O337   1.265       .  A
C336        C419   1.444       .  S
O337       Al339   1.931       .  S
O338        C340   1.252       .  A
O338       Al339   1.854       .  S
Al339       O347   1.900       .  S
Al339       O349   1.922       .  S
Al339       O348   1.784       .  S
C340        O353   1.266       .  A
C340        C410   1.414       .  S
O341        C351   1.255       .  A
O341       Al343   1.902       .  S
O342        C355   1.265       .  A
O342       Al352   1.896       .  S
Al343       O356   1.928       .  S
Al343       O353   1.925       .  S
Al343       O348   1.780       .  S
O344        C351   1.258       .  A
O344       Al352   1.920       .  S
O345        C354   1.263       .  A
O345       Al352   1.928       .  S
O346       Al352   1.917       .  S
O347        C354   1.260       .  A
O348       Al352   1.780       .  S
O349        C350   1.259       .  A
C350        C408   1.438       .  S
C351        C406   1.441       .  S
C354        C430   1.436       .  S
C355        O356   1.269       .  A
C355        C418   1.434       .  S
O357        C372   1.269       .  A
O357       Al365   1.928       .  S
C358        O368   1.265       .  A
C358        O807   1.267       .  A
C358        C851   1.444       .  S
O359        C806   1.267   1_455  A
O359       Al809   1.918       .  S
O360        C362   1.258       .  A
O360       Al809   1.920       .  S
Al361       O807   1.918       .  S
Al361       O808   1.920       .  S
Al361       O369   1.929       .  S
Al361       O819   1.897       .  S
Al361       O370   1.780       .  S
C362        O823   1.255       .  A
C362        C411   1.441       .  S
O363        C373   1.266       .  A
O363       Al365   1.925       .  S
O364        C377   1.259       .  A
O364       Al374   1.922       .  S
Al365       O378   1.885       .  S
Al365       O375   1.901       .  S
Al365       O370   1.780       .  S
O366        C373   1.252       .  A
O366       Al374   1.854       .  S
O367        C376   1.260       .  A
O367       Al374   1.900       .  S
O368       Al374   1.931       .  S
O369        C376   1.263       .  A
O370       Al374   1.784       .  S
O371        C820   1.265       .  A
O371       Al809   1.897       .  S
C372        O819   1.265       .  A
C372        C849   1.434       .  S
C373        C409   1.414       .  S
O375        C810   1.255       .  A
C376        C423   1.436       .  S
C377        O378   1.254       .  A
C377        C414   1.438       .  S
O379        C394   1.269       .  A
O379       Al387   1.928       .  S
C380        O390   1.265       .  A
C380        O381   1.267   1_455  A
C380        C404   1.444       .  S
O381       Al383   1.918   1_655  S
O382        C384   1.258       .  A
O382       Al831   1.920       .  S
Al383       O830   1.920   1_455  S
Al383       O391   1.928       .  S
Al383       O393   1.896       .  S
Al383       O392   1.780       .  S
C384        O845   1.255       .  A
C384        C407   1.441       .  S
O385        C395   1.266       .  A
O385       Al387   1.925       .  S
O386        C399   1.259       .  A
O386       Al396   1.922       .  S
Al387       O400   1.885       .  S
Al387       O397   1.902       .  S
Al387       O392   1.780       .  S
O388        C395   1.252       .  A
O388       Al396   1.854       .  S
O389        C398   1.260       .  A
O389       Al396   1.900       .  S
O390       Al396   1.931       .  S
O391        C398   1.263       .  A
O392       Al396   1.784       .  S
O393        C394   1.265       .  A
C394        C402   1.434       .  S
C395        C416   1.414       .  S
O397        C832   1.255   1_455  A
C398        C422   1.436       .  S
C399        O400   1.254       .  A
C399        C405   1.438       .  S
C401        C820   1.434       .  S
C403        C806   1.444   1_455  S
C403        C404   1.212       .  T
C405        C406   1.209       .  T
C407        C408   1.209       .  T
C409        C410   1.195       .  T
C411        C412   1.209       .  T
C413        C414   1.209       .  T
C415        C416   1.195       .  T
C419        C420   1.211       .  T
C421        C422   1.206   1_565  T
C423        C424   1.206   1_545  T
C425        C737   1.434       .  S
C427        C876   1.211       .  T
C428        C875   1.211       .  T
C429        C430   1.206       .  T
C431        C432   1.209       .  T
C433        C434   1.209       .  T
C435        C436   1.195       .  T
C437        C438   1.206       .  T
C439        C440   1.209       .  T
C441        C442   1.209       .  T
C443        C444   1.195       .  T
C447        C448   1.212       .  T
O449        C464   1.269       .  A
O449       Al457   1.928       .  S
C450        O460   1.265       .  A
C450        O451   1.267       .  A
C450        C671   1.444       .  S
O451       Al453   1.918       .  S
O452        C454   1.258       .  A
O452       Al453   1.920       .  S
Al453       O461   1.928       .  S
Al453       O463   1.896       .  S
Al453       O462   1.780       .  S
C454        O467   1.255       .  A
C454        C666   1.441       .  S
O455        C465   1.266       .  A
O455       Al457   1.925       .  S
O456        C469   1.259       .  A
O456       Al466   1.922       .  S
Al457       O470   1.885       .  S
Al457       O467   1.902       .  S
Al457       O462   1.780       .  S
O458        C465   1.252       .  A
O458       Al466   1.854       .  S
O459        C468   1.260       .  A
O459       Al466   1.900       .  S
O460       Al466   1.931       .  S
O461        C468   1.263       .  A
O462       Al466   1.784       .  S
O463        C464   1.265       .  A
C464        C669   1.434       .  S
C465        C668   1.414       .  S
C468        C661   1.436       .  S
C469        O470   1.254       .  A
C469        C664   1.438       .  S
O471        C486   1.269       .  A
O471       Al479   1.928       .  S
C472        O482   1.265       .  A
C472        O473   1.267       .  A
C472        C672   1.444       .  S
O473       Al475   1.918       .  S
O474        C476   1.258       .  A
O474       Al475   1.920       .  S
Al475       O483   1.929       .  S
Al475       O485   1.897       .  S
Al475       O484   1.780       .  S
C476        O489   1.255       .  A
C476        C656   1.441       .  S
O477        C487   1.266       .  A
O477       Al479   1.925       .  S
O478        C491   1.259       .  A
O478       Al488   1.922       .  S
Al479       O492   1.885       .  S
Al479       O489   1.901       .  S
Al479       O484   1.780       .  S
O480        C487   1.252       .  A
O480       Al488   1.854       .  S
O481        C490   1.259       .  A
O481       Al488   1.900       .  S
O482       Al488   1.931       .  S
O483        C490   1.263       .  A
O484       Al488   1.784       .  S
O485        C486   1.265       .  A
C486        C670   1.434       .  S
C487        C659   1.414       .  S
C490        C653   1.436       .  S
C491        O492   1.254       .  A
C491        C658   1.438       .  S
O493        C508   1.254       .  A
O493       Al501   1.886       .  S
C494        O495   1.265       .  A
C494        C652   1.444   1_655  S
O495       Al497   1.931       .  S
O496        C498   1.252       .  A
O496       Al497   1.854       .  S
Al497       O505   1.900       .  S
Al497       O507   1.922       .  S
Al497       O506   1.784       .  S
C498        O511   1.266       .  A
C498        C660   1.414       .  S
O499       Al501   1.902   1_455  S
O500        C513   1.265       .  A
O500       Al510   1.896       .  S
Al501       O514   1.928       .  S
Al501       O511   1.925       .  S
Al501       O506   1.780       .  S
O502        C509   1.258       .  A
O503        C512   1.263       .  A
O503       Al510   1.928   1_655  S
O505        C512   1.260       .  A
O506       Al510   1.780   1_655  S
O507        C508   1.259       .  A
C508        C665   1.438       .  S
C509        C663   1.441       .  S
C512        C648   1.436       .  S
C513        O514   1.268   1_455  A
O515        C530   1.254       .  A
O515       Al523   1.886       .  S
C516        O526   1.267       .  A
C516        O517   1.265       .  A
C516        C651   1.444       .  S
O517       Al519   1.931       .  S
O518        C520   1.252       .  A
O518       Al519   1.854       .  S
Al519       O527   1.900       .  S
Al519       O529   1.922       .  S
Al519       O528   1.784       .  S
C520        O533   1.266       .  A
C520        C667   1.414       .  S
O521       Al523   1.902       .  S
O522        C535   1.265       .  A
O522       Al532   1.896       .  S
Al523       O536   1.927       .  S
Al523       O533   1.925       .  S
Al523       O528   1.780       .  S
O524        C531   1.258       .  A
O525        C534   1.263       .  A
O525       Al532   1.929       .  S
O526       Al532   1.917       .  S
O527        C534   1.260       .  A
O528       Al532   1.779       .  S
O529        C530   1.259       .  A
C530        C655   1.438       .  S
C531        C657   1.441       .  S
C534        C645   1.436       .  S
C535        O536   1.268       .  A
C535        C650   1.434       .  S
O537        C552   1.254       .  A
O537       Al545   1.886       .  S
C538        O548   1.267       .  A
C538        O539   1.265       .  A
C538        C644   1.444       .  S
O539       Al541   1.931       .  S
O540        C542   1.252       .  A
O540       Al541   1.854       .  S
Al541       O549   1.900       .  S
Al541       O551   1.922       .  S
Al541       O550   1.784       .  S
C542        O555   1.266       .  A
C542        C639   1.414       .  S
O543        C553   1.255       .  A
O543       Al545   1.902       .  S
O544        C557   1.265       .  A
O544       Al554   1.896       .  S
Al545       O558   1.927       .  S
Al545       O555   1.925       .  S
Al545       O550   1.780       .  S
O546        C553   1.258       .  A
O546       Al554   1.921       .  S
O547        C556   1.264       .  A
O547       Al554   1.929       .  S
O548       Al554   1.917       .  S
O549        C556   1.260       .  A
O550       Al554   1.779       .  S
O551        C552   1.259       .  A
C552        C636   1.438       .  S
C553        C637   1.441       .  S
C556        C662   1.436       .  S
C557        O558   1.268       .  A
C557        C641   1.434       .  S
O559        C574   1.254       .  A
O559       Al567   1.886       .  S
C560        O570   1.267       .  A
C560        O561   1.265       .  A
C560        C643   1.444       .  S
O561       Al563   1.931       .  S
O562        C564   1.252       .  A
O562       Al563   1.854       .  S
Al563       O571   1.900       .  S
Al563       O573   1.922       .  S
Al563       O572   1.784       .  S
C564        O577   1.266       .  A
C564        C634   1.414       .  S
O565        C575   1.255       .  A
O565       Al567   1.902       .  S
O566        C579   1.265       .  A
O566       Al576   1.896       .  S
Al567       O580   1.928       .  S
Al567       O577   1.925       .  S
Al567       O572   1.780       .  S
O568        C575   1.258       .  A
O568       Al576   1.920       .  S
O569        C578   1.263       .  A
O569       Al576   1.928       .  S
O570       Al576   1.917       .  S
O571        C578   1.260       .  A
O572       Al576   1.780       .  S
O573        C574   1.259       .  A
C574        C632   1.438       .  S
C575        C630   1.441       .  S
C578        C654   1.436       .  S
C579        O580   1.269       .  A
C579        C642   1.434       .  S
O581        C596   1.269   1_655  A
O581       Al589   1.928       .  S
C582        O592   1.265       .  A
O584        C586   1.258       .  A
Al585       O593   1.929   1_455  S
Al585       O594   1.780   1_455  S
C586        C635   1.441       .  S
O587        C597   1.266       .  A
O587       Al589   1.925       .  S
O588        C601   1.259       .  A
O588       Al598   1.922       .  S
Al589       O602   1.885       .  S
Al589       O599   1.901   1_655  S
Al589       O594   1.780       .  S
O590        C597   1.252       .  A
O590       Al598   1.854       .  S
O591        C600   1.260       .  A
O591       Al598   1.900       .  S
O592       Al598   1.931       .  S
O593        C600   1.263       .  A
O594       Al598   1.784       .  S
C597        C633   1.414       .  S
C600        C647   1.436       .  S
C601        O602   1.254       .  A
C601        C638   1.438       .  S
O603        C618   1.269       .  A
O603       Al611   1.928       .  S
C604        O614   1.265       .  A
C604        O605   1.267       .  A
C604        C628   1.444       .  S
O605       Al607   1.918       .  S
O606        C608   1.258       .  A
Al607       O615   1.928       .  S
Al607       O617   1.896       .  S
Al607       O616   1.780       .  S
C608        C631   1.441       .  S
O609        C619   1.266       .  A
O609       Al611   1.925       .  S
O610        C623   1.259       .  A
O610       Al620   1.922       .  S
Al611       O624   1.885       .  S
Al611       O621   1.902       .  S
Al611       O616   1.780       .  S
O612        C619   1.252       .  A
O612       Al620   1.854       .  S
O613        C622   1.260       .  A
O613       Al620   1.900       .  S
O614       Al620   1.931       .  S
O615        C622   1.263       .  A
O616       Al620   1.784       .  S
O617        C618   1.265       .  A
C618        C626   1.434       .  S
C619        C640   1.414       .  S
C622        C646   1.436       .  S
C623        O624   1.254       .  A
C623        C629   1.438       .  S
C625        C850   1.205       .  T
C626        C849   1.205   1_554  T
C627        C628   1.212       .  T
C629        C630   1.209       .  T
C631        C632   1.209       .  T
C633        C634   1.195       .  T
C635        C636   1.209       .  T
C637        C638   1.209       .  T
C639        C640   1.195       .  T
C641        C866   1.205       .  T
C642        C865   1.205   1_554  T
C643        C644   1.211       .  T
C645        C646   1.206   1_565  T
C647        C648   1.206   1_545  T
C649        C874   1.205       .  T
C650        C873   1.205   1_554  T
C653        C654   1.206       .  T
C655        C656   1.209       .  T
C657        C658   1.209       .  T
C659        C660   1.195       .  T
C661        C662   1.206       .  T
C663        C664   1.209       .  T
C665        C666   1.209       .  T
C667        C668   1.195       .  T
C669        C894   1.205       .  T
C670        C893   1.205   1_554  T
C671        C672   1.212       .  T
O673        C688   1.269       .  A
O673       Al681   1.928       .  S
C674        O684   1.265       .  A
C674        O675   1.267       .  A
C674        C895   1.444       .  S
O675       Al677   1.918       .  S
O676        C678   1.258       .  A
O676       Al677   1.920       .  S
Al677       O685   1.928       .  S
Al677       O687   1.896       .  S
Al677       O686   1.780       .  S
C678        O691   1.255       .  A
C678        C890   1.441       .  S
O679        C689   1.266       .  A
O679       Al681   1.925       .  S
O680        C693   1.259       .  A
O680       Al690   1.922       .  S
Al681       O694   1.885       .  S
Al681       O691   1.902       .  S
Al681       O686   1.780       .  S
O682        C689   1.252       .  A
O682       Al690   1.854       .  S
O683        C692   1.260       .  A
O683       Al690   1.900       .  S
O684       Al690   1.931       .  S
O685        C692   1.263       .  A
O686       Al690   1.784       .  S
O687        C688   1.265       .  A
C688        C893   1.434       .  S
C689        C892   1.414       .  S
C692        C885   1.436       .  S
C693        O694   1.254       .  A
C693        C888   1.438       .  S
O695        C710   1.269       .  A
O695       Al703   1.928       .  S
C696        O706   1.265       .  A
C696        O697   1.267       .  A
C696        C896   1.444       .  S
O697       Al699   1.918       .  S
O698        C700   1.258       .  A
O698       Al699   1.920       .  S
Al699       O707   1.929       .  S
Al699       O709   1.897       .  S
Al699       O708   1.780       .  S
C700        O713   1.255       .  A
C700        C880   1.441       .  S
O701        C711   1.266       .  A
O701       Al703   1.925       .  S
O702        C715   1.259       .  A
O702       Al712   1.922       .  S
Al703       O716   1.885       .  S
Al703       O713   1.901       .  S
Al703       O708   1.780       .  S
O704        C711   1.252       .  A
O704       Al712   1.854       .  S
O705        C714   1.259       .  A
O705       Al712   1.900       .  S
O706       Al712   1.931       .  S
O707        C714   1.263       .  A
O708       Al712   1.784       .  S
O709        C710   1.265       .  A
C710        C894   1.434       .  S
C711        C883   1.414       .  S
C714        C877   1.436       .  S
C715        O716   1.254       .  A
C715        C882   1.438       .  S
O717        C732   1.254       .  A
O717       Al725   1.886       .  S
C718        O719   1.265       .  A
C718        C876   1.444   1_655  S
O719       Al721   1.931       .  S
O720        C722   1.252       .  A
O720       Al721   1.854       .  S
Al721       O729   1.900       .  S
Al721       O731   1.922       .  S
Al721       O730   1.784       .  S
C722        O735   1.266       .  A
C722        C884   1.414       .  S
O723       Al725   1.902   1_455  S
O724        C737   1.265       .  A
O724       Al734   1.896       .  S
Al725       O738   1.928       .  S
Al725       O735   1.925       .  S
Al725       O730   1.780       .  S
O726        C733   1.258       .  A
O727        C736   1.263       .  A
O727       Al734   1.928   1_655  S
O729        C736   1.260       .  A
O730       Al734   1.780   1_655  S
O731        C732   1.259       .  A
C732        C889   1.438       .  S
C733        C887   1.441       .  S
C736        C872   1.436       .  S
C737        O738   1.268   1_455  A
O739        C754   1.254       .  A
O739       Al747   1.886       .  S
C740        O750   1.267       .  A
C740        O741   1.265       .  A
C740        C875   1.444       .  S
O741       Al743   1.931       .  S
O742        C744   1.252       .  A
O742       Al743   1.854       .  S
Al743       O751   1.900       .  S
Al743       O753   1.922       .  S
Al743       O752   1.784       .  S
C744        O757   1.266       .  A
C744        C891   1.414       .  S
O745       Al747   1.902       .  S
O746        C759   1.265       .  A
O746       Al756   1.896       .  S
Al747       O760   1.927       .  S
Al747       O757   1.925       .  S
Al747       O752   1.780       .  S
O748        C755   1.258       .  A
O749        C758   1.263       .  A
O749       Al756   1.929       .  S
O750       Al756   1.917       .  S
O751        C758   1.260       .  A
O752       Al756   1.779       .  S
O753        C754   1.259       .  A
C754        C879   1.438       .  S
C755        C881   1.441       .  S
C758        C869   1.436       .  S
C759        O760   1.268       .  A
C759        C874   1.434       .  S
O761        C776   1.254       .  A
O761       Al769   1.886       .  S
C762        O772   1.267       .  A
C762        O763   1.265       .  A
C762        C868   1.444       .  S
O763       Al765   1.931       .  S
O764        C766   1.252       .  A
O764       Al765   1.854       .  S
Al765       O773   1.900       .  S
Al765       O775   1.922       .  S
Al765       O774   1.784       .  S
C766        O779   1.266       .  A
C766        C863   1.414       .  S
O767        C777   1.255       .  A
O767       Al769   1.902       .  S
O768        C781   1.265       .  A
O768       Al778   1.896       .  S
Al769       O782   1.927       .  S
Al769       O779   1.925       .  S
Al769       O774   1.780       .  S
O770        C777   1.258       .  A
O770       Al778   1.921       .  S
O771        C780   1.264       .  A
O771       Al778   1.929       .  S
O772       Al778   1.917       .  S
O773        C780   1.260       .  A
O774       Al778   1.779       .  S
O775        C776   1.259       .  A
C776        C860   1.438       .  S
C777        C861   1.441       .  S
C780        C886   1.436       .  S
C781        O782   1.268       .  A
C781        C865   1.434       .  S
O783        C798   1.254       .  A
O783       Al791   1.886       .  S
C784        O794   1.267       .  A
C784        O785   1.265       .  A
C784        C867   1.444       .  S
O785       Al787   1.931       .  S
O786        C788   1.252       .  A
O786       Al787   1.854       .  S
Al787       O795   1.900       .  S
Al787       O797   1.922       .  S
Al787       O796   1.784       .  S
C788        O801   1.266       .  A
C788        C858   1.414       .  S
O789        C799   1.255       .  A
O789       Al791   1.902       .  S
O790        C803   1.265       .  A
O790       Al800   1.896       .  S
Al791       O804   1.928       .  S
Al791       O801   1.925       .  S
Al791       O796   1.780       .  S
O792        C799   1.258       .  A
O792       Al800   1.920       .  S
O793        C802   1.263       .  A
O793       Al800   1.928       .  S
O794       Al800   1.917       .  S
O795        C802   1.260       .  A
O796       Al800   1.780       .  S
O797        C798   1.259       .  A
C798        C856   1.438       .  S
C799        C854   1.441       .  S
C802        C878   1.436       .  S
C803        O804   1.269       .  A
C803        C866   1.434       .  S
O805        C820   1.269   1_655  A
O805       Al813   1.928       .  S
C806        O816   1.265       .  A
O808        C810   1.258       .  A
Al809       O817   1.929   1_455  S
Al809       O818   1.780   1_455  S
C810        C859   1.441       .  S
O811        C821   1.266       .  A
O811       Al813   1.925       .  S
O812        C825   1.259       .  A
O812       Al822   1.922       .  S
Al813       O826   1.885       .  S
Al813       O823   1.901   1_655  S
Al813       O818   1.780       .  S
O814        C821   1.252       .  A
O814       Al822   1.854       .  S
O815        C824   1.260       .  A
O815       Al822   1.900       .  S
O816       Al822   1.931       .  S
O817        C824   1.263       .  A
O818       Al822   1.784       .  S
C821        C857   1.414       .  S
C824        C871   1.436       .  S
C825        O826   1.254       .  A
C825        C862   1.438       .  S
O827        C842   1.269       .  A
O827       Al835   1.928       .  S
C828        O838   1.265       .  A
C828        O829   1.267       .  A
C828        C852   1.444       .  S
O829       Al831   1.918       .  S
O830        C832   1.258       .  A
Al831       O839   1.928       .  S
Al831       O841   1.896       .  S
Al831       O840   1.780       .  S
C832        C855   1.441       .  S
O833        C843   1.266       .  A
O833       Al835   1.925       .  S
O834        C847   1.259       .  A
O834       Al844   1.922       .  S
Al835       O848   1.885       .  S
Al835       O845   1.902       .  S
Al835       O840   1.780       .  S
O836        C843   1.252       .  A
O836       Al844   1.854       .  S
O837        C846   1.260       .  A
O837       Al844   1.900       .  S
O838       Al844   1.931       .  S
O839        C846   1.263       .  A
O840       Al844   1.784       .  S
O841        C842   1.265       .  A
C842        C850   1.434       .  S
C843        C864   1.414       .  S
C846        C870   1.436       .  S
C847        O848   1.254       .  A
C847        C853   1.438       .  S
C851        C852   1.212       .  T
C853        C854   1.209       .  T
C855        C856   1.209       .  T
C857        C858   1.195       .  T
C859        C860   1.209       .  T
C861        C862   1.209       .  T
C863        C864   1.195       .  T
C867        C868   1.211       .  T
C869        C870   1.206   1_565  T
C871        C872   1.206   1_545  T
C877        C878   1.206       .  T
C879        C880   1.209       .  T
C881        C882   1.209       .  T
C883        C884   1.195       .  T
C885        C886   1.206       .  T
C887        C888   1.209       .  T
C889        C890   1.209       .  T
C891        C892   1.195       .  T
C895        C896   1.212       .  T
