geometry optimzed in LAMMPS
_audit_creation_date              2020-11-30 
_audit_creation_method            'lammps2cif' 
_symmetry_space_group_name_H-M    'P1' 
_symmetry_Int_Tables_number       1 
_symmetry_cell_setting            triclinic 
loop_ 
_symmetry_equiv_pos_as_xyz 
  x,y,z 
_cell_length_a                    41.27251840176458 
_cell_length_b                    35.30497082287373 
_cell_length_c                    43.1110248579834 
_cell_angle_alpha                 89.14713021819384 
_cell_angle_beta                  102.8853406972233 
_cell_angle_gamma                 90.6063546146632 
loop_ 
_atom_site_label 
_atom_site_type_symbol 
_atom_site_fract_x 
_atom_site_fract_y 
_atom_site_fract_z 
_atom_site_charge 
O1          O  0.23469941  0.71083703  0.41828541    -0.82000
C2          C  0.23958297  0.62158646  0.31629091     0.97350
O3          O  0.25972908  0.63755010  0.33878340    -0.71120
O4          O  0.28077481  0.68796127  0.38308954    -0.74710
Al5        Al  0.25279168  0.64445260  0.38042034     1.48980
C6          C  0.27710618  0.72060299  0.37074627     0.92610
O7          O  0.18382926  0.72999637  0.33265761    -0.80930
O8          O  0.14543377  0.66930972  0.35244771    -0.74490
Al9        Al  0.21016381  0.71604214  0.37441718     1.90120
O10         O  0.17994585  0.67718134  0.30592525    -0.73560
O11         O  0.18005848  0.60501436  0.37073278    -0.73410
O12         O  0.21027976  0.61354724  0.31908725    -0.79070
O13         O  0.23375660  0.59482325  0.38185253    -0.77270
O14         O  0.21471898  0.66802087  0.36495124    -1.13400
O15         O  0.24910946  0.65057040  0.42294133    -0.72600
C16         C  0.24529953  0.68195758  0.43533775     0.98120
C17         C  0.17479981  0.71201630  0.30682432     0.94510
Al18       Al  0.18167293  0.64307050  0.33954304     1.55560
O19         O  0.24825265  0.73298123  0.35982876    -0.77220
C20         C  0.20440469  0.58343513  0.38092819     0.98680
C21         C  0.14508311  0.69427580  0.37318408     0.93560
O22         O  0.17198758  0.70590094  0.39021562    -0.82540
O23         O  0.28452377  0.70906281  0.08786493    -0.82000
C24         C  0.27790423  0.62518141  0.19473134     0.97350
O25         O  0.25825733  0.63892625  0.17055736    -0.71120
O26         O  0.23773611  0.68699360  0.12308476    -0.74710
Al27       Al  0.26669317  0.64414338  0.12906986     1.48980
C28         C  0.24101507  0.72027271  0.13359317     0.92610
O29         O  0.33366576  0.73427763  0.17228135    -0.80930
O30         O  0.37294284  0.67385041  0.15889590    -0.74490
Al31       Al  0.30829426  0.71703792  0.13148876     1.90120
O32         O  0.33558682  0.68385609  0.20306837    -0.73560
O33         O  0.34056304  0.60753788  0.14440544    -0.73410
O34         O  0.30764733  0.61806559  0.19343184    -0.79070
O35         O  0.28706475  0.59512677  0.13109828    -0.77270
O36         O  0.30402307  0.66958410  0.14407057    -1.13400
O37         O  0.27178554  0.64820627  0.08655960    -0.72600
C38         C  0.27485278  0.67916816  0.07239818     0.98120
C39         C  0.34064865  0.71857169  0.19954659     0.94510
Al40       Al  0.33657005  0.64741818  0.17234022     1.55560
O41         O  0.26970203  0.73356126  0.14425179    -0.77220
C42         C  0.31690569  0.58492294  0.13386540     0.98680
C43         C  0.37381452  0.69667263  0.13611823     0.93560
O44         O  0.34727851  0.70671350  0.11742546    -0.82540
O45         O  0.42086131  0.80254689  0.39170319    -0.82000
C46         C  0.48782032  0.87468887  0.30841587     0.97350
O47         O  0.45882971  0.88308936  0.31092587    -0.71120
O48         O  0.42780907  0.81930861  0.30469944    -0.74710
Al49       Al  0.43069699  0.85755396  0.33456980     1.48980
C50         C  0.42280882  0.78477035  0.30934919     0.92610
O51         O  0.49518849  0.76710746  0.36341052    -0.80930
O52         O  0.49965030  0.85702392  0.41743238    -0.74490
Al53       Al  0.45794141  0.78804799  0.37649338     1.90120
O54         O  0.02933026  0.81373066  0.37991307    -0.73560
O55         O  0.48466813  0.90859055  0.37154802    -0.73410
O56         O  0.00813154  0.86041148  0.33191139    -0.79070
O57         O  0.43062779  0.89975469  0.36183333    -0.77270
O58         O  0.46359001  0.83441511  0.36188859    -1.13400
O59         O  0.39460772  0.83474987  0.35034484    -0.72600
C60         C  0.39408880  0.81308975  0.37380857     0.98120
C61         C  0.02447318  0.77974963  0.37116497     0.94510
Al62       Al  0.50234498  0.85808700  0.37424457     1.55560
O63         O  0.43061945  0.76995246  0.33692321    -0.77220
C64         C  0.45574659  0.92120020  0.36974458     0.98680
C65         C  0.49425269  0.82778927  0.43278847     0.93560
O66         O  0.48302537  0.79750835  0.41883155    -0.82540
O67         O  0.09844318  0.80139384  0.11187594    -0.82000
C68         C  0.03107402  0.87709082  0.18977560     0.97350
O69         O  0.06015543  0.88618161  0.18712502    -0.71120
O70         O  0.09270366  0.82337782  0.19801055    -0.74710
Al71       Al  0.08904561  0.85944112  0.16534573     1.48980
C72         C  0.09948952  0.78917346  0.19535944     0.92610
O73         O  0.02461292  0.76802987  0.14328687    -0.80930
O74         O  0.02208495  0.85407327  0.08249890    -0.74490
Al75       Al  0.06176041  0.78754781  0.12833936     1.90120
O76         O  0.49068412  0.81282140  0.12143270    -0.73560
O77         O  0.03562866  0.90825652  0.12514119    -0.73410
O78         O  0.01087634  0.86217299  0.16670601    -0.79070
O79         O  0.08933090  0.89900596  0.13511089    -0.77270
O80         O  0.05624910  0.83460848  0.13966533    -1.13400
O81         O  0.12508765  0.83593554  0.15090390    -0.72600
C82         C  0.12539046  0.81314410  0.12867487     0.98120
C83         C  0.99538044  0.77996902  0.13361151     0.94510
Al84       Al  0.01779453  0.85759312  0.12497621     1.55560
O85         O  0.08985317  0.77241067  0.16900502    -0.77220
C86         C  0.06478006  0.92058725  0.12658085     0.98680
C87         C  0.02643352  0.82357220  0.06912787     0.93560
O88         O  0.03616251  0.79377713  0.08516765    -0.82540
O89         O  0.17145558  0.30158263  0.39197262    -0.82000
C90         C  0.24655655  0.38181984  0.31976697     0.97350
O91         O  0.21698885  0.39061698  0.32057383    -0.71120
O92         O  0.18677724  0.32670101  0.30839401    -0.74710
Al93       Al  0.18592824  0.36187318  0.33972653     1.48980
C94         C  0.17947586  0.29243905  0.31043511     0.92610
O95         O  0.24962383  0.27226491  0.36771918    -0.80930
O96         O  0.24707010  0.35764025  0.42566850    -0.74490
Al97       Al  0.21070121  0.29020892  0.37917369     1.90120
O98         O  0.28259065  0.31675104  0.39139401    -0.73560
O99         O  0.23628360  0.41148032  0.38178837    -0.73410
O100        O  0.26484678  0.36570933  0.34362494    -0.79070
O101        O  0.18251738  0.40091119  0.36849856    -0.77270
O102        O  0.21695946  0.33761769  0.36793559    -1.13400
O103        O  0.14767975  0.33635604  0.35104537    -0.72600
C104        C  0.14555149  0.31293934  0.37310612     0.98120
C105        C  0.27849526  0.28368917  0.38032935     0.94510
Al106      Al  0.25479840  0.36118992  0.38435234     1.55560
O107        O  0.18614178  0.27532568  0.33723981    -0.77220
C108        C  0.20671244  0.42302456  0.37843118     0.98680
C109        C  0.24198816  0.32692604  0.43920679     0.93560
O110        O  0.23304631  0.29696438  0.42346740    -0.82540
O111        O  0.35030152  0.30316881  0.11808159    -0.82000
C112        C  0.28456847  0.37966754  0.19854229     0.97350
O113        O  0.31403187  0.38705798  0.19615475    -0.71120
O114        O  0.34266267  0.32249986  0.20374671    -0.74710
Al115      Al  0.34167053  0.36003199  0.17327085     1.48980
C116        C  0.34749356  0.28802342  0.20018856     0.92610
O117        O  0.27397842  0.27148005  0.14595126    -0.80930
O118        O  0.27301903  0.36085796  0.09017385    -0.74490
Al119      Al  0.31218431  0.29092367  0.13302745     1.90120
O120        O  0.24163761  0.31895681  0.12818354    -0.73560
O121        O  0.28992791  0.41217087  0.13500014    -0.73410
O122        O  0.26409478  0.36535177  0.17546137    -0.79070
O123        O  0.34366927  0.40183317  0.14538084    -0.77270
O124        O  0.30811705  0.33768893  0.14631006    -1.13400
O125        O  0.37745742  0.33543464  0.15832176    -0.72600
C126        C  0.37740525  0.31259052  0.13591565     0.98120
C127        C  0.24516905  0.28456946  0.13643442     0.94510
Al128      Al  0.27021317  0.36243808  0.13326601     1.55560
O129        O  0.33835373  0.27266100  0.17326385    -0.77220
C130        C  0.31937312  0.42405338  0.13709628     0.98680
C131        C  0.27732936  0.33130640  0.07547107     0.93560
O132        O  0.28794489  0.30095245  0.09018436    -0.82540
O133        O  0.48385318  0.20899186  0.42305314    -0.82000
C134        C  0.48728824  0.12591467  0.31702185     0.97350
O135        O  0.50809398  0.14102503  0.33961069    -0.71120
O136        O  0.03115773  0.18941667  0.38580500    -0.74710
Al137      Al  0.50257466  0.14566291  0.38194766     1.48980
C138        C  0.02711848  0.22239991  0.37407170     0.92610
O139        O  0.43422987  0.23294456  0.33820734    -0.80930
O140        O  0.39529766  0.16850480  0.35835305    -0.74490
Al141      Al  0.45991237  0.21717824  0.37932202     1.90120
O142        O  0.42682520  0.18045190  0.31083867    -0.73560
O143        O  0.43066508  0.10479551  0.37311826    -0.73410
O144        O  0.45819979  0.11786312  0.32017096    -0.79070
O145        O  0.48422303  0.09534392  0.38146155    -0.77270
O146        O  0.46412280  0.16945780  0.36826528    -1.13400
O147        O  0.99959236  0.14912498  0.42486319    -0.72600
C148        C  0.49448559  0.17908108  0.43873567     0.98120
C149        C  0.42389128  0.21559455  0.31234632     0.94510
Al150      Al  0.43058547  0.14483845  0.34312425     1.55560
O151        O  0.49816438  0.23521188  0.36532940    -0.77220
C152        C  0.45516221  0.08287268  0.38009364     0.98680
C153        C  0.39456314  0.19336909  0.37891036     0.93560
O154        O  0.42128430  0.20753509  0.39430672    -0.82540
O155        O  0.03787436  0.20931234  0.09138635    -0.82000
C156        C  0.03370412  0.12606464  0.19976869     0.97350
O157        O  0.01337245  0.14066566  0.17627226    -0.71120
O158        O  0.99149895  0.18960331  0.12915698    -0.74710
Al159      Al  0.01933567  0.14557735  0.13385722     1.48980
C160        C  0.99605059  0.22314928  0.13911476     0.92610
O161        O  0.08906822  0.23368857  0.17512051    -0.80930
O162        O  0.12695324  0.16888957  0.15706935    -0.74490
Al163      Al  0.06268448  0.21709712  0.13464901     1.90120
O164        O  0.09565407  0.18194124  0.20430106    -0.73560
O165        O  0.09067896  0.10367845  0.14520481    -0.73410
O166        O  0.06311623  0.11957624  0.19733186    -0.79070
O167        O  0.03677975  0.09512108  0.13509753    -0.77270
O168        O  0.05795097  0.16947152  0.14720919    -1.13400
O169        O  0.02281001  0.14905900  0.09061851    -0.72600
C170        C  0.02760328  0.17937236  0.07620920     0.98120
C171        C  0.09871294  0.21709965  0.20180786     0.94510
Al172      Al  0.09122039  0.14535143  0.17333677     1.55560
O173        O  0.02519667  0.23547871  0.14828881    -0.77220
C174        C  0.06556605  0.08235252  0.13684806     0.98680
C175        C  0.12722377  0.19327430  0.13531656     0.93560
O176        O  0.10033769  0.20623272  0.11938181    -0.82540
C177        C  0.03365642  0.16691149  0.49018783    -0.12470
C178        C  0.50223853  0.17924952  0.47389573     0.04540
C179        C  0.47911762  0.19119600  0.49139552    -0.07760
C180        C  0.48867354  0.19227726  0.02478736    -0.08500
C181        C  0.02023580  0.18021861  0.04108988    -0.03050
C182        C  0.04307367  0.16708666  0.02358347     0.03760
N183        N  0.07570388  0.15391347  0.03893484     0.66270
H184        H  0.05123318  0.15763466  0.47663733     0.15170
H185        H  0.47085785  0.20098071  0.03828301     0.14880
N186        N  0.44525860  0.19915995  0.47594698     0.73980
O187        O  0.09063875  0.13073526  0.02509807    -0.39480
O188        O  0.09128883  0.16838201  0.06454779    -0.39420
O189        O  0.42966898  0.17693844  0.45505009    -0.40120
O190        O  0.42919319  0.22374911  0.48714773    -0.40190
C191        C  0.03006145  0.10827612  0.28785945    -0.12470
C192        C  0.49719270  0.11829754  0.28666310     0.04540
C193        C  0.47594529  0.12530832  0.25676134    -0.07760
C194        C  0.48868095  0.12488245  0.22927387    -0.08500
C195        C  0.02244175  0.11763178  0.23016602    -0.03050
C196        C  0.04339288  0.10711349  0.26044608     0.03760
N197        N  0.07805891  0.09680601  0.26533585     0.66270
H198        H  0.04579236  0.10196185  0.31097578     0.15170
H199        H  0.47178144  0.13189800  0.20691733     0.14880
N200        N  0.44200909  0.13598380  0.25382062     0.73980
O201        O  0.09616532  0.09624281  0.29314708    -0.39480
O202        O  0.08932868  0.08156220  0.24385897    -0.39420
O203        O  0.43143849  0.16590019  0.23869858    -0.40120
O204        O  0.42134709  0.11192255  0.25982356    -0.40190
C205        C  0.15552384  0.24931723  0.11887184    -0.12470
C206        C  0.15852913  0.21209755  0.13120547     0.04540
C207        C  0.19076241  0.19756764  0.14342043    -0.07760
C208        C  0.21869656  0.22167431  0.14500127    -0.08500
C209        C  0.21527216  0.25957136  0.13390387    -0.03050
C210        C  0.18304573  0.27281151  0.11985420     0.03760
N211        N  0.17740972  0.31018967  0.10647639     0.66270
H212        H  0.13123656  0.26121702  0.10914091     0.15170
H213        H  0.24328394  0.21063732  0.15473988     0.14880
N214        N  0.19566569  0.15857266  0.15337416     0.73980
O215        O  0.15889373  0.33255254  0.11703922    -0.39480
O216        O  0.18558220  0.31814830  0.08060798    -0.39420
O217        O  0.17737408  0.13296820  0.13827344    -0.40120
O218        O  0.22101275  0.14906365  0.17422160    -0.40190
C219        C  0.43968261  0.30689995  0.14786339    -0.12470
C220        C  0.40825553  0.29232617  0.13326354     0.04540
C221        C  0.40646004  0.25514828  0.12084540    -0.07760
C222        C  0.43527356  0.23384254  0.12355014    -0.08500
C223        C  0.46668587  0.24791110  0.13847485    -0.03050
C224        C  0.46881544  0.28525319  0.15074778     0.03760
N225        N  0.99984240  0.30130597  0.16721610     0.66270
H226        H  0.44151912  0.33483037  0.15828371     0.15170
H227        H  0.43272651  0.20554641  0.11378984     0.14880
N228        N  0.37540397  0.23718756  0.10717922     0.73980
O229        O  0.00729747  0.33491555  0.16100464    -0.39480
O230        O  0.01637779  0.28504696  0.19189635    -0.39420
O231        O  0.36084750  0.24520818  0.07893974    -0.40120
O232        O  0.36647933  0.20802188  0.12047816    -0.40190
C233        C  0.39281944  0.28848037  0.24779106    -0.12470
C234        C  0.36740226  0.26776673  0.22764394     0.04540
C235        C  0.36149032  0.22983893  0.23506892    -0.07760
C236        C  0.38036325  0.21395640  0.26303234    -0.08500
C237        C  0.40530777  0.23491186  0.28359371    -0.03050
C238        C  0.41163423  0.27259423  0.27575111     0.03760
N239        N  0.43751826  0.29472107  0.29510747     0.66270
H240        H  0.39798184  0.31755963  0.24189815     0.15170
H241        H  0.37546507  0.18473819  0.26864735     0.14880
N242        N  0.33587049  0.20753613  0.21544844     0.73980
O243        O  0.46005164  0.30900693  0.28295570    -0.39480
O244        O  0.43388934  0.30673606  0.32153792    -0.39420
O245        O  0.33812401  0.19914917  0.18765874    -0.40120
O246        O  0.31518698  0.18981996  0.22793800    -0.40190
C247        C  0.05421959  0.28608849  0.36917743    -0.12470
C248        C  0.05671711  0.24621229  0.37170917     0.04540
C249        C  0.08822417  0.22969014  0.37398606    -0.07760
C250        C  0.11619626  0.25283339  0.37572649    -0.08500
C251        C  0.11404185  0.29249902  0.37376122    -0.03050
C252        C  0.08250724  0.30957370  0.37001480     0.03760
N253        N  0.07880131  0.35014588  0.36831251     0.66270
H254        H  0.03024947  0.29908287  0.36752337     0.15170
H255        H  0.13995453  0.23934227  0.37710703     0.14880
N256        N  0.09223944  0.18944304  0.37289996     0.73980
O257        O  0.05105323  0.36460874  0.35570524    -0.39480
O258        O  0.10222013  0.37163997  0.38177627    -0.39420
O259        O  0.07621150  0.17122854  0.34934291    -0.40120
O260        O  0.11593370  0.17345227  0.39203811    -0.40190
C261        C  0.30483291  0.22785997  0.36104906    -0.12470
C262        C  0.30743366  0.25806389  0.38242087     0.04540
C263        C  0.33736602  0.26229505  0.40573758    -0.07760
C264        C  0.36411429  0.23816970  0.40583199    -0.08500
C265        C  0.36262785  0.21018167  0.38267798    -0.03050
C266        C  0.33199254  0.20427934  0.36070408     0.03760
N267        N  0.32826603  0.17594319  0.33678298     0.66270
H268        H  0.28194960  0.22348195  0.34342433     0.15170
H269        H  0.38702128  0.24301328  0.42331164     0.14880
N270        N  0.34140774  0.29065714  0.42973462     0.73980
O271        O  0.30802007  0.14895355  0.33697037    -0.39480
O272        O  0.33890264  0.18252271  0.31197069    -0.39420
O273        O  0.35039759  0.28065555  0.45857929    -0.40120
O274        O  0.34527390  0.32482980  0.42223759    -0.40190
C275        C  0.14749218  0.23733586  0.28540121    -0.12470
C276        C  0.15980793  0.27369126  0.28181259     0.04540
C277        C  0.14954025  0.29276730  0.25200744    -0.07760
C278        C  0.12871753  0.27437634  0.22649891    -0.08500
C279        C  0.11651344  0.23787063  0.23021790    -0.03050
C280        C  0.12538318  0.21983639  0.26047985     0.03760
N281        N  0.11135655  0.18423562  0.26690421     0.66270
H282        H  0.15373805  0.22288734  0.30827370     0.15170
H283        H  0.12219386  0.28881704  0.20364007     0.14880
N284        N  0.15926594  0.33099386  0.24711659     0.73980
O285        O  0.12997594  0.15894032  0.28214914    -0.39480
O286        O  0.08026127  0.18115348  0.26332951    -0.39420
O287        O  0.17646954  0.33789549  0.22689444    -0.40120
O288        O  0.14417958  0.35780009  0.25671787    -0.40190
C289        C  0.28158882  0.31699531  0.48982466    -0.12470
C290        C  0.24908824  0.32582343  0.47403357     0.04540
C291        C  0.22622316  0.33878320  0.49149933    -0.07760
C292        C  0.23654258  0.34124494  0.02473583    -0.08500
C293        C  0.26892348  0.33163803  0.04053305    -0.03050
C294        C  0.29211263  0.32063159  0.02284616     0.03760
N295        N  0.32675274  0.31618227  0.03755700     0.66270
H296        H  0.29934675  0.30931816  0.47599454     0.15170
H297        H  0.21905344  0.35006982  0.03851757     0.14880
N298        N  0.19286896  0.34971253  0.47620922     0.73980
O299        O  0.34463153  0.29479114  0.02527042    -0.39480
O300        O  0.34074595  0.33880115  0.05890469    -0.39420
O301        O  0.17805596  0.33471198  0.45051635    -0.40120
O302        O  0.17698103  0.37216142  0.48975405    -0.40190
C303        C  0.29908243  0.37779024  0.25745688    -0.12470
C304        C  0.27517133  0.38544993  0.22940627     0.04540
C305        C  0.24308850  0.39675705  0.23180445    -0.07760
C306        C  0.23531952  0.39825494  0.26186996    -0.08500
C307        C  0.25857048  0.38807149  0.28986765    -0.03050
C308        C  0.29136716  0.37917140  0.28753231     0.03760
N309        N  0.31713749  0.37123031  0.31518945     0.66270
H310        H  0.32396854  0.36982934  0.25597406     0.15170
H311        H  0.21023389  0.40568032  0.26302000     0.14880
N312        N  0.21824338  0.40761865  0.20429536     0.73980
O313        O  0.33691803  0.34423204  0.31500945    -0.39480
O314        O  0.32349773  0.39466361  0.33761421    -0.39420
O315        O  0.20546812  0.38309371  0.18412236    -0.40120
O316        O  0.20409220  0.43920298  0.20382810    -0.40190
C317        C  0.06443282  0.02511555  0.10240107    -0.12470
C318        C  0.06952172  0.04116559  0.13283603     0.04540
C319        C  0.07538721  0.01695851  0.15973320    -0.07760
C320        C  0.07699796  0.97804625  0.15616041    -0.08500
C321        C  0.07041935  0.96172540  0.12621102    -0.03050
C322        C  0.06444944  0.98520951  0.09859347     0.03760
N323        N  0.05834764  0.96941862  0.06710366     0.66270
H324        H  0.05957691  0.04370165  0.08172730     0.15170
H325        H  0.08035597  0.96001068  0.17720971     0.14880
N326        N  0.07527470  0.03051954  0.19067639     0.73980
O327        O  0.04849054  0.99031568  0.04288123    -0.39480
O328        O  0.06468356  0.93515666  0.06308429    -0.39420
O329        O  0.04816248  0.04222047  0.19574815    -0.40120
O330        O  0.09727799  0.01870005  0.21394432    -0.40190
C331        C  0.44779503  0.02533338  0.34955083    -0.12470
C332        C  0.44977152  0.04163866  0.37925940     0.04540
C333        C  0.45164290  0.01808388  0.40650635    -0.07760
C334        C  0.45220360  0.97825745  0.40282800    -0.08500
C335        C  0.45160302  0.96230885  0.37300077    -0.03050
C336        C  0.44953770  0.98630191  0.34628017     0.03760
N337        N  0.45218201  0.97190349  0.31611200     0.66270
H338        H  0.44732150  0.04332928  0.32887079     0.15170
H339        H  0.45402965  0.95961496  0.42328461     0.14880
N340        N  0.45360539  0.03370832  0.43764410     0.73980
O341        O  0.43109696  0.98177133  0.29143984    -0.39480
O342        O  0.47973675  0.95907523  0.31316915    -0.39420
O343        O  0.44652805  0.06792312  0.44086799    -0.40120
O344        O  0.46087411  0.01277521  0.46217263    -0.40190
C345        C  0.48540411  0.82116201  0.01807888    -0.12470
C346        C  0.01878238  0.82268457  0.03429254     0.04540
C347        C  0.04386866  0.82744484  0.01707234    -0.07760
C348        C  0.03508960  0.83065257  0.48386836    -0.08500
C349        C  0.50178585  0.82842042  0.46761276    -0.03050
C350        C  0.47652959  0.82405072  0.48478105     0.03760
N351        N  0.44196178  0.82427011  0.46896917     0.66270
H352        H  0.46618661  0.81872890  0.03150531     0.15170
H353        H  0.05440614  0.83358167  0.47060163     0.14880
N354        N  0.07827384  0.82848265  0.03282990     0.73980
O355        O  0.42112794  0.80511053  0.48018600    -0.39480
O356        O  0.43154209  0.84763312  0.44660715    -0.39420
O357        O  0.09117693  0.79965175  0.04813881    -0.40120
O358        O  0.09696640  0.85421407  0.02580838    -0.40190
C359        C  0.03216556  0.87980729  0.27817675    -0.12470
C360        C  0.49816666  0.88116060  0.27787021     0.04540
C361        C  0.47514528  0.88442940  0.24814755    -0.07760
C362        C  0.48671691  0.88492603  0.21989479    -0.08500
C363        C  0.02075715  0.88257511  0.22027738    -0.03050
C364        C  0.04367225  0.88035505  0.25002023     0.03760
N365        N  0.07841711  0.87485224  0.25235288     0.66270
H366        H  0.05019627  0.87703252  0.30058402     0.15170
H367        H  0.46876116  0.88629918  0.19735147     0.14880
N368        N  0.43996303  0.88525679  0.24584733     0.73980
O369        O  0.09603232  0.90196438  0.24582633    -0.39480
O370        O  0.09244657  0.84669512  0.26792504    -0.39420
O371        O  0.42719632  0.91376927  0.25560431    -0.40120
O372        O  0.42126527  0.86215791  0.22800015    -0.40190
C373        C  0.34748922  0.52608958  0.15176809    -0.12470
C374        C  0.32377463  0.54485674  0.12839634     0.04540
C375        C  0.30258908  0.52348453  0.10453073    -0.07760
C376        C  0.30305591  0.48372829  0.10696422    -0.08500
C377        C  0.32465683  0.46497176  0.13212667    -0.03050
C378        C  0.34782296  0.48645918  0.15428590     0.03760
N379        N  0.36882898  0.46917664  0.18173188     0.66270
H380        H  0.36348004  0.54232836  0.17037257     0.15170
H381        H  0.28586438  0.46718198  0.08954420     0.14880
N382        N  0.28054304  0.54167978  0.07800859     0.73980
O383        O  0.39894331  0.47918028  0.18994645    -0.39480
O384        O  0.35587049  0.45130559  0.20151227    -0.39420
O385        O  0.28882751  0.57268240  0.06689422    -0.40120
O386        O  0.25479561  0.52469185  0.06312612    -0.40190
C387        C  0.21557532  0.78165137  0.14368439    -0.12470
C388        C  0.21128562  0.74444392  0.13184102     0.04540
C389        C  0.17891410  0.73233265  0.11648622    -0.07760
C390        C  0.15253662  0.75753912  0.11275463    -0.08500
C391        C  0.15638726  0.79398851  0.12576754    -0.03050
C392        C  0.18856324  0.80650592  0.14103997     0.03760
N393        N  0.19440255  0.84413068  0.15353889     0.66270
H394        H  0.24021285  0.79165749  0.15496151     0.15170
H395        H  0.12801308  0.74691952  0.10175429     0.14880
N396        N  0.17147867  0.69417908  0.10588908     0.73980
O397        O  0.21759061  0.85026455  0.17754619    -0.39480
O398        O  0.17915904  0.87196546  0.13849532    -0.39420
O399        O  0.17717654  0.66720641  0.12584366    -0.40120
O400        O  0.15148898  0.68857821  0.07955609    -0.40190
C401        C  0.43547405  0.77570255  0.13254895    -0.12470
C402        C  0.46566900  0.75653120  0.13585687     0.04540
C403        C  0.46551726  0.71639793  0.13895178    -0.07760
C404        C  0.43528559  0.69694712  0.13838193    -0.08500
C405        C  0.40515583  0.71653132  0.13414992    -0.03050
C406        C  0.40560876  0.75646157  0.13128823     0.03760
N407        N  0.37607835  0.77841948  0.12817503     0.66270
H408        H  0.43474660  0.80634986  0.13053660     0.15170
H409        H  0.43532997  0.66638804  0.14122577     0.14880
N410        N  0.49526788  0.69479982  0.14189871     0.73980
O411        O  0.37365182  0.80091295  0.15001815    -0.39480
O412        O  0.35700144  0.78246442  0.10107307    -0.39420
O413        O  0.01856282  0.69839829  0.16623304    -0.40120
O414        O  0.49541329  0.66691122  0.12393934    -0.40190
C415        C  0.37338834  0.74828676  0.28432873    -0.12470
C416        C  0.40443217  0.76329132  0.28221577     0.04540
C417        C  0.41351543  0.76529574  0.25249983    -0.07760
C418        C  0.39043080  0.75352252  0.22529588    -0.08500
C419        C  0.35922889  0.73893254  0.22728565    -0.03050
C420        C  0.35046568  0.73604375  0.25712837     0.03760
N421        N  0.31833291  0.72189928  0.26005819     0.66270
H422        H  0.36628978  0.74815386  0.30707484     0.15170
H423        H  0.39757004  0.75348684  0.20259736     0.14880
N424        N  0.44620542  0.77784670  0.24974525     0.73980
O425        O  0.31416256  0.70929183  0.28647213    -0.39480
O426        O  0.29331503  0.72515207  0.23721082    -0.39420
O427        O  0.47062529  0.77574395  0.27329611    -0.40120
O428        O  0.45159249  0.78702713  0.22290686    -0.40190
C429        C  0.17491182  0.52358947  0.36498569    -0.12470
C430        C  0.19882873  0.54303884  0.38747440     0.04540
C431        C  0.22187251  0.52227834  0.41051725    -0.07760
C432        C  0.22281268  0.48264066  0.40803721    -0.08500
C433        C  0.20094552  0.46348640  0.38352373    -0.03050
C434        C  0.17612092  0.48419886  0.36229446     0.03760
N435        N  0.15493735  0.46671757  0.33530874     0.66270
H436        H  0.15761496  0.53938364  0.34692195     0.15170
H437        H  0.24123827  0.46663346  0.42481914     0.14880
N438        N  0.24456098  0.54104370  0.43606001     0.73980
O439        O  0.12414346  0.47324889  0.32903300    -0.39480
O440        O  0.16762294  0.45237903  0.31417131    -0.39420
O441        O  0.23644583  0.57165023  0.44698501    -0.40120
O442        O  0.27117186  0.52513820  0.45009571    -0.40190
C443        C  0.08520161  0.77384996  0.37702764    -0.12470
C444        C  0.05406681  0.75567497  0.37085733     0.04540
C445        C  0.05300546  0.71582862  0.36617237    -0.07760
C446        C  0.08289736  0.69576950  0.36797025    -0.08500
C447        C  0.11389106  0.71438971  0.37458568    -0.03050
C448        C  0.11459829  0.75405253  0.37899952     0.03760
N449        N  0.14487767  0.77546211  0.38369053     0.66270
H450        H  0.08709023  0.80424461  0.38034146     0.15170
H451        H  0.08184871  0.66553128  0.36375988     0.14880
N452        N  0.02221457  0.69516907  0.35953795     0.73980
O453        O  0.15034373  0.79648536  0.36144491    -0.39480
O454        O  0.16206971  0.77985738  0.41154398    -0.39420
O455        O  0.50081498  0.70214586  0.33429401    -0.40120
O456        O  0.01938851  0.66520742  0.37510002    -0.40190
C457        C  0.30315131  0.78344810  0.36235564    -0.12470
C458        C  0.30692366  0.74480234  0.37105167     0.04540
C459        C  0.33938925  0.73061755  0.38265099    -0.07760
C460        C  0.36656451  0.75512774  0.38637235    -0.08500
C461        C  0.36310388  0.79331277  0.37680610    -0.03050
C462        C  0.33089221  0.80789238  0.36483833     0.03760
N463        N  0.32583426  0.84719917  0.35591499     0.66270
H464        H  0.27845125  0.79485029  0.35402704     0.15170
H465        H  0.39107778  0.74306229  0.39441471     0.14880
N466        N  0.34574518  0.69104248  0.38905282     0.73980
O467        O  0.30043371  0.85721356  0.33534725    -0.39480
O468        O  0.34473559  0.87241342  0.37086654    -0.39420
O469        O  0.33701055  0.66753747  0.36691342    -0.40120
O470        O  0.36578700  0.68070664  0.41428782    -0.40190
C471        C  0.16108204  0.76993286  0.27361916    -0.12470
C472        C  0.15635255  0.73109641  0.27759963     0.04540
C473        C  0.13390393  0.71103368  0.25351198    -0.07760
C474        C  0.11626593  0.73044822  0.22663784    -0.08500
C475        C  0.12031561  0.76948235  0.22308041    -0.03050
C476        C  0.14421259  0.78919865  0.24626088     0.03760
N477        N  0.15351970  0.82782424  0.24149357     0.66270
H478        H  0.17910721  0.78512065  0.29135682     0.15170
H479        H  0.09837473  0.71504616  0.20892723     0.14880
N480        N  0.12727191  0.67139038  0.25654231     0.73980
O481        O  0.16107228  0.84971755  0.26494903    -0.39480
O482        O  0.16156921  0.83730760  0.21589394    -0.39420
O483        O  0.11343586  0.65981747  0.27827013    -0.40120
O484        O  0.12915602  0.64939632  0.23419948    -0.40190
C485        C  0.22744856  0.68511479  0.48617063    -0.12470
C486        C  0.25352451  0.68476099  0.47027300     0.04540
C487        C  0.28671946  0.68322977  0.48803674    -0.07760
C488        C  0.29293931  0.68129806  0.02143938    -0.08500
C489        C  0.26680214  0.68061612  0.03732559    -0.03050
C490        C  0.23363768  0.68252605  0.01951132     0.03760
N491        N  0.20601761  0.68135637  0.03468626     0.66270
H492        H  0.20203177  0.68570994  0.47244101     0.15170
H493        H  0.31833173  0.68051436  0.03519218     0.14880
N494        N  0.31423729  0.68441348  0.47264558     0.73980
O495        O  0.18031727  0.70045359  0.02327705    -0.39480
O496        O  0.20501423  0.65684490  0.05604999    -0.39420
O497        O  0.31338030  0.70585896  0.44880614    -0.40120
O498        O  0.34102526  0.66782395  0.48513472    -0.40190
C499        C  0.22503677  0.62089167  0.25733126    -0.12470
C500        C  0.24926242  0.61515863  0.28551497     0.04540
C501        C  0.28262630  0.60945302  0.28337728    -0.07760
C502        C  0.29088514  0.61124499  0.25336359    -0.08500
C503        C  0.26687823  0.61895119  0.22525885    -0.03050
C504        C  0.23348918  0.62351963  0.22761865     0.03760
N505        N  0.20805953  0.63355328  0.20052877     0.66270
H506        H  0.19953176  0.62612499  0.25850800     0.15170
H507        H  0.31655674  0.60745460  0.25214469     0.14880
N508        N  0.30838258  0.60181743  0.31120731     0.73980
O509        O  0.18664880  0.60911907  0.18832796    -0.39480
O510        O  0.20280792  0.66810808  0.19347652    -0.39420
O511        O  0.30269398  0.58034732  0.33309811    -0.40120
O512        O  0.33783947  0.61274288  0.31227089    -0.40190
O513        O  0.23469942  0.71083702  0.91828541    -0.82000
C514        C  0.23958298  0.62158646  0.81629091     0.97350
O515        O  0.25972909  0.63755010  0.83878340    -0.71120
O516        O  0.28077482  0.68796127  0.88308954    -0.74710
Al517      Al  0.25279169  0.64445259  0.88042034     1.48980
C518        C  0.27710619  0.72060299  0.87074627     0.92610
O519        O  0.18382926  0.72999637  0.83265762    -0.80930
O520        O  0.14543378  0.66930971  0.85244771    -0.74490
Al521      Al  0.21016382  0.71604213  0.87441718     1.90120
O522        O  0.17994586  0.67718134  0.80592525    -0.73560
O523        O  0.18005849  0.60501435  0.87073277    -0.73410
O524        O  0.21027977  0.61354724  0.81908724    -0.79070
O525        O  0.23375661  0.59482325  0.88185253    -0.77270
O526        O  0.21471899  0.66802086  0.86495124    -1.13400
O527        O  0.24910947  0.65057039  0.92294132    -0.72600
C528        C  0.24529954  0.68195756  0.93533775     0.98120
C529        C  0.17479981  0.71201630  0.80682433     0.94510
Al530      Al  0.18167294  0.64307050  0.83954304     1.55560
O531        O  0.24825266  0.73298122  0.85982876    -0.77220
C532        C  0.20440470  0.58343512  0.88092819     0.98680
C533        C  0.14508312  0.69427578  0.87318409     0.93560
O534        O  0.17198759  0.70590092  0.89021562    -0.82540
O535        O  0.28452377  0.70906281  0.58786494    -0.82000
C536        C  0.27790423  0.62518140  0.69473134     0.97350
O537        O  0.25825733  0.63892624  0.67055736    -0.71120
O538        O  0.23773612  0.68699359  0.62308476    -0.74710
Al539      Al  0.26669318  0.64414338  0.62906985     1.48980
C540        C  0.24101508  0.72027270  0.63359317     0.92610
O541        O  0.33366576  0.73427763  0.67228136    -0.80930
O542        O  0.37294285  0.67385041  0.65889590    -0.74490
Al543      Al  0.30829426  0.71703792  0.63148876     1.90120
O544        O  0.33558682  0.68385609  0.70306837    -0.73560
O545        O  0.34056305  0.60753788  0.64440544    -0.73410
O546        O  0.30764734  0.61806558  0.69343184    -0.79070
O547        O  0.28706476  0.59512677  0.63109828    -0.77270
O548        O  0.30402308  0.66958410  0.64407057    -1.13400
O549        O  0.27178555  0.64820628  0.58655960    -0.72600
C550        C  0.27485278  0.67916817  0.57239818     0.98120
C551        C  0.34064865  0.71857168  0.69954660     0.94510
Al552      Al  0.33657006  0.64741818  0.67234022     1.55560
O553        O  0.26970204  0.73356125  0.64425179    -0.77220
C554        C  0.31690570  0.58492294  0.63386539     0.98680
C555        C  0.37381452  0.69667263  0.63611824     0.93560
O556        O  0.34727851  0.70671350  0.61742546    -0.82540
O557        O  0.42086132  0.80254688  0.89170320    -0.82000
C558        C  0.48782033  0.87468886  0.80841587     0.97350
O559        O  0.45882972  0.88308934  0.81092586    -0.71120
O560        O  0.42780908  0.81930859  0.80469944    -0.74710
Al561      Al  0.43069700  0.85755395  0.83456980     1.48980
C562        C  0.42280882  0.78477033  0.80934919     0.92610
O563        O  0.49518850  0.76710745  0.86341052    -0.80930
O564        O  0.49965030  0.85702391  0.91743238    -0.74490
Al565      Al  0.45794142  0.78804798  0.87649339     1.90120
O566        O  0.02933027  0.81373065  0.87991307    -0.73560
O567        O  0.48466814  0.90859054  0.87154802    -0.73410
O568        O  0.00813155  0.86041146  0.83191139    -0.79070
O569        O  0.43062779  0.89975468  0.86183333    -0.77270
O570        O  0.46359001  0.83441510  0.86188859    -1.13400
O571        O  0.39460773  0.83474986  0.85034485    -0.72600
C572        C  0.39408881  0.81308974  0.87380857     0.98120
C573        C  0.02447319  0.77974961  0.87116497     0.94510
Al574      Al  0.50234499  0.85808700  0.87424457     1.55560
O575        O  0.43061945  0.76995245  0.83692322    -0.77220
C576        C  0.45574660  0.92120019  0.86974457     0.98680
C577        C  0.49425270  0.82778927  0.93278847     0.93560
O578        O  0.48302538  0.79750834  0.91883155    -0.82540
O579        O  0.09844318  0.80139383  0.61187595    -0.82000
C580        C  0.03107403  0.87709082  0.68977560     0.97350
O581        O  0.06015544  0.88618161  0.68712501    -0.71120
O582        O  0.09270367  0.82337782  0.69801055    -0.74710
Al583      Al  0.08904561  0.85944111  0.66534573     1.48980
C584        C  0.09948953  0.78917346  0.69535944     0.92610
O585        O  0.02461293  0.76802987  0.64328688    -0.80930
O586        O  0.02208496  0.85407327  0.58249890    -0.74490
Al587      Al  0.06176041  0.78754781  0.62833936     1.90120
O588        O  0.49068413  0.81282140  0.62143269    -0.73560
O589        O  0.03562867  0.90825652  0.62514119    -0.73410
O590        O  0.01087635  0.86217299  0.66670601    -0.79070
O591        O  0.08933090  0.89900596  0.63511089    -0.77270
O592        O  0.05624911  0.83460848  0.63966533    -1.13400
O593        O  0.12508765  0.83593554  0.65090390    -0.72600
C594        C  0.12539046  0.81314409  0.62867487     0.98120
C595        C  0.99538044  0.77996902  0.63361152     0.94510
Al596      Al  0.01779453  0.85759312  0.62497621     1.55560
O597        O  0.08985317  0.77241067  0.66900503    -0.77220
C598        C  0.06478007  0.92058724  0.62658085     0.98680
C599        C  0.02643352  0.82357220  0.56912787     0.93560
O600        O  0.03616252  0.79377712  0.58516766    -0.82540
O601        O  0.17145559  0.30158265  0.89197262    -0.82000
C602        C  0.24655656  0.38181984  0.81976697     0.97350
O603        O  0.21698886  0.39061698  0.82057383    -0.71120
O604        O  0.18677726  0.32670101  0.80839400    -0.74710
Al605      Al  0.18592825  0.36187318  0.83972652     1.48980
C606        C  0.17947585  0.29243905  0.81043510     0.92610
O607        O  0.24962383  0.27226490  0.86771918    -0.80930
O608        O  0.24707012  0.35764025  0.92566850    -0.74490
Al609      Al  0.21070122  0.29020892  0.87917369     1.90120
O610        O  0.28259066  0.31675103  0.89139400    -0.73560
O611        O  0.23628362  0.41148032  0.88178836    -0.73410
O612        O  0.26484679  0.36570932  0.84362493    -0.79070
O613        O  0.18251740  0.40091118  0.86849855    -0.77270
O614        O  0.21695947  0.33761769  0.86793558    -1.13400
O615        O  0.14767976  0.33635605  0.85104537    -0.72600
C616        C  0.14555150  0.31293935  0.87310612     0.98120
C617        C  0.27849526  0.28368916  0.88032935     0.94510
Al618      Al  0.25479841  0.36118991  0.88435233     1.55560
O619        O  0.18614178  0.27532568  0.83723981    -0.77220
C620        C  0.20671246  0.42302456  0.87843117     0.98680
C621        C  0.24198817  0.32692605  0.93920678     0.93560
O622        O  0.23304632  0.29696438  0.92346740    -0.82540
O623        O  0.35030153  0.30316879  0.61808159    -0.82000
C624        C  0.28456850  0.37966756  0.69854229     0.97350
O625        O  0.31403190  0.38705800  0.69615475    -0.71120
O626        O  0.34266270  0.32249987  0.70374671    -0.74710
Al627      Al  0.34167055  0.36003200  0.67327085     1.48980
C628        C  0.34749357  0.28802343  0.70018856     0.92610
O629        O  0.27397842  0.27148007  0.64595128    -0.80930
O630        O  0.27301905  0.36085797  0.59017385    -0.74490
Al631      Al  0.31218431  0.29092367  0.63302746     1.90120
O632        O  0.24163763  0.31895684  0.62818354    -0.73560
O633        O  0.28992793  0.41217088  0.63500013    -0.73410
O634        O  0.26409481  0.36535179  0.67546137    -0.79070
O635        O  0.34366929  0.40183318  0.64538083    -0.77270
O636        O  0.30811707  0.33768894  0.64631006    -1.13400
O637        O  0.37745743  0.33543464  0.65832175    -0.72600
C638        C  0.37740526  0.31259051  0.63591564     0.98120
C639        C  0.24516906  0.28456949  0.63643444     0.94510
Al640      Al  0.27021319  0.36243810  0.63326601     1.55560
O641        O  0.33835374  0.27266100  0.67326386    -0.77220
C642        C  0.31937314  0.42405339  0.63709627     0.98680
C643        C  0.27732937  0.33130640  0.57547108     0.93560
O644        O  0.28794489  0.30095245  0.59018437    -0.82540
O645        O  0.48385318  0.20899186  0.92305314    -0.82000
C646        C  0.48728825  0.12591467  0.81702185     0.97350
O647        O  0.50809398  0.14102502  0.83961070    -0.71120
O648        O  0.03115774  0.18941668  0.88580501    -0.74710
Al649      Al  0.50257467  0.14566290  0.88194766     1.48980
C650        C  0.02711849  0.22239992  0.87407171     0.92610
O651        O  0.43422988  0.23294456  0.83820735    -0.80930
O652        O  0.39529766  0.16850478  0.85835306    -0.74490
Al653      Al  0.45991237  0.21717824  0.87932203     1.90120
O654        O  0.42682519  0.18045190  0.81083867    -0.73560
O655        O  0.43066508  0.10479550  0.87311826    -0.73410
O656        O  0.45819979  0.11786312  0.82017096    -0.79070
O657        O  0.48422303  0.09534391  0.88146154    -0.77270
O658        O  0.46412280  0.16945779  0.86826528    -1.13400
O659        O  0.99959238  0.14912498  0.92486319    -0.72600
C660        C  0.49448559  0.17908108  0.93873567     0.98120
C661        C  0.42389127  0.21559455  0.81234632     0.94510
Al662      Al  0.43058547  0.14483844  0.84312425     1.55560
O663        O  0.49816438  0.23521187  0.86532941    -0.77220
C664        C  0.45516221  0.08287267  0.88009364     0.98680
C665        C  0.39456314  0.19336908  0.87891037     0.93560
O666        O  0.42128430  0.20753509  0.89430672    -0.82540
O667        O  0.03787436  0.20931233  0.59138635    -0.82000
C668        C  0.03370412  0.12606465  0.69976869     0.97350
O669        O  0.01337245  0.14066566  0.67627225    -0.71120
O670        O  0.99149895  0.18960330  0.62915697    -0.74710
Al671      Al  0.01933568  0.14557734  0.63385722     1.48980
C672        C  0.99605059  0.22314928  0.63911475     0.92610
O673        O  0.08906822  0.23368857  0.67512051    -0.80930
O674        O  0.12695325  0.16888958  0.65706935    -0.74490
Al675      Al  0.06268448  0.21709712  0.63464901     1.90120
O676        O  0.09565407  0.18194124  0.70430106    -0.73560
O677        O  0.09067897  0.10367845  0.64520480    -0.73410
O678        O  0.06311624  0.11957624  0.69733185    -0.79070
O679        O  0.03677975  0.09512107  0.63509754    -0.77270
O680        O  0.05795097  0.16947152  0.64720918    -1.13400
O681        O  0.02281001  0.14905899  0.59061851    -0.72600
C682        C  0.02760328  0.17937234  0.57620920     0.98120
C683        C  0.09871293  0.21709965  0.70180786     0.94510
Al684      Al  0.09122039  0.14535143  0.67333677     1.55560
O685        O  0.02519667  0.23547870  0.64828880    -0.77220
C686        C  0.06556606  0.08235252  0.63684806     0.98680
C687        C  0.12722377  0.19327431  0.63531657     0.93560
O688        O  0.10033768  0.20623272  0.61938180    -0.82540
C689        C  0.03365642  0.16691149  0.99018783    -0.12470
C690        C  0.50223853  0.17924952  0.97389573     0.04540
C691        C  0.47911761  0.19119599  0.99139552    -0.07760
C692        C  0.48867355  0.19227726  0.52478736    -0.08500
C693        C  0.02023580  0.18021860  0.54108988    -0.03050
C694        C  0.04307367  0.16708666  0.52358346     0.03760
N695        N  0.07570388  0.15391346  0.53893483     0.66270
H696        H  0.05123319  0.15763465  0.97663734     0.15170
H697        H  0.47085786  0.20098072  0.53828301     0.14880
N698        N  0.44525859  0.19915992  0.97594697     0.73980
O699        O  0.09063878  0.13073531  0.52509802    -0.39480
O700        O  0.09128881  0.16838192  0.56454782    -0.39420
O701        O  0.42966897  0.17693841  0.95505009    -0.40120
O702        O  0.42919316  0.22374908  0.98714772    -0.40190
C703        C  0.03006146  0.10827613  0.78785945    -0.12470
C704        C  0.49719271  0.11829754  0.78666310     0.04540
C705        C  0.47594530  0.12530831  0.75676135    -0.07760
C706        C  0.48868096  0.12488243  0.72927387    -0.08500
C707        C  0.02244176  0.11763179  0.73016602    -0.03050
C708        C  0.04339289  0.10711349  0.76044608     0.03760
N709        N  0.07805891  0.09680601  0.76533584     0.66270
H710        H  0.04579237  0.10196186  0.81097577     0.15170
H711        H  0.47178145  0.13189798  0.70691734     0.14880
N712        N  0.44200911  0.13598381  0.75382062     0.73980
O713        O  0.09616534  0.09624283  0.79314707    -0.39480
O714        O  0.08932867  0.08156218  0.74385896    -0.39420
O715        O  0.43143853  0.16590024  0.73869865    -0.40120
O716        O  0.42134709  0.11192255  0.75982351    -0.40190
C717        C  0.15552383  0.24931734  0.61887199    -0.12470
C718        C  0.15852912  0.21209760  0.63120550     0.04540
C719        C  0.19076241  0.19756765  0.64342036    -0.07760
C720        C  0.21869656  0.22167432  0.64500120    -0.08500
C721        C  0.21527215  0.25957141  0.63390391    -0.03050
C722        C  0.18304571  0.27281162  0.61985436     0.03760
N723        N  0.17740969  0.31018985  0.60647670     0.66270
H724        H  0.13123654  0.26121717  0.60914117     0.15170
H725        H  0.24328394  0.21063729  0.65473973     0.14880
N726        N  0.19566568  0.15857263  0.65337398     0.73980
O727        O  0.15889383  0.33255268  0.61703973    -0.39480
O728        O  0.18558200  0.31814859  0.58060823    -0.39420
O729        O  0.17737400  0.13296823  0.63827324    -0.40120
O730        O  0.22101279  0.14906353  0.67422131    -0.40190
C731        C  0.43968262  0.30689994  0.64786337    -0.12470
C732        C  0.40825553  0.29232616  0.63326353     0.04540
C733        C  0.40646004  0.25514826  0.62084540    -0.07760
C734        C  0.43527356  0.23384252  0.62355014    -0.08500
C735        C  0.46668587  0.24791108  0.63847484    -0.03050
C736        C  0.46881545  0.28525318  0.65074776     0.03760
N737        N  0.99984240  0.30130597  0.66721608     0.66270
H738        H  0.44151912  0.33483036  0.65828368     0.15170
H739        H  0.43272651  0.20554638  0.61378984     0.14880
N740        N  0.37540397  0.23718754  0.60717922     0.73980
O741        O  0.00729747  0.33491554  0.66100459    -0.39480
O742        O  0.01637779  0.28504698  0.69189633    -0.39420
O743        O  0.36084749  0.24520816  0.57893974    -0.40120
O744        O  0.36647933  0.20802186  0.62047816    -0.40190
C745        C  0.39281944  0.28848038  0.74779108    -0.12470
C746        C  0.36740226  0.26776674  0.72764395     0.04540
C747        C  0.36149032  0.22983895  0.73506893    -0.07760
C748        C  0.38036324  0.21395641  0.76303235    -0.08500
C749        C  0.40530777  0.23491186  0.78359372    -0.03050
C750        C  0.41163423  0.27259424  0.77575112     0.03760
N751        N  0.43751826  0.29472107  0.79510749     0.66270
H752        H  0.39798185  0.31755963  0.74189816     0.15170
H753        H  0.37546506  0.18473820  0.76864735     0.14880
N754        N  0.33587049  0.20753614  0.71544844     0.73980
O755        O  0.46005165  0.30900692  0.78295572    -0.39480
O756        O  0.43388933  0.30673607  0.82153794    -0.39420
O757        O  0.33812402  0.19914918  0.68765874    -0.40120
O758        O  0.31518697  0.18981999  0.72793799    -0.40190
C759        C  0.05421960  0.28608850  0.86917743    -0.12470
C760        C  0.05671712  0.24621230  0.87170918     0.04540
C761        C  0.08822418  0.22969016  0.87398607    -0.07760
C762        C  0.11619627  0.25283340  0.87572650    -0.08500
C763        C  0.11404186  0.29249903  0.87376121    -0.03050
C764        C  0.08250725  0.30957371  0.87001479     0.03760
N765        N  0.07880132  0.35014589  0.86831250     0.66270
H766        H  0.03024948  0.29908288  0.86752337     0.15170
H767        H  0.13995454  0.23934228  0.87710704     0.14880
N768        N  0.09223946  0.18944305  0.87289997     0.73980
O769        O  0.05105323  0.36460875  0.85570524    -0.39480
O770        O  0.10222013  0.37163999  0.88177626    -0.39420
O771        O  0.07621151  0.17122855  0.84934292    -0.40120
O772        O  0.11593371  0.17345229  0.89203813    -0.40190
C773        C  0.30483291  0.22785995  0.86104907    -0.12470
C774        C  0.30743366  0.25806387  0.88242088     0.04540
C775        C  0.33736602  0.26229503  0.90573759    -0.07760
C776        C  0.36411428  0.23816967  0.90583200    -0.08500
C777        C  0.36262785  0.21018165  0.88267799    -0.03050
C778        C  0.33199254  0.20427932  0.86070409     0.03760
N779        N  0.32826603  0.17594317  0.83678299     0.66270
H780        H  0.28194960  0.22348193  0.84342433     0.15170
H781        H  0.38702127  0.24301326  0.92331165     0.14880
N782        N  0.34140773  0.29065711  0.92973464     0.73980
O783        O  0.30802006  0.14895354  0.83697037    -0.39480
O784        O  0.33890266  0.18252269  0.81197070    -0.39420
O785        O  0.35039758  0.28065551  0.95857931    -0.40120
O786        O  0.34527389  0.32482977  0.92223761    -0.40190
C787        C  0.14749221  0.23733585  0.78540120    -0.12470
C788        C  0.15980792  0.27369127  0.78181259     0.04540
C789        C  0.14954019  0.29276734  0.75200745    -0.07760
C790        C  0.12871747  0.27437637  0.72649892    -0.08500
C791        C  0.11651344  0.23787062  0.73021790    -0.03050
C792        C  0.12538321  0.21983637  0.76047984     0.03760
N793        N  0.11135662  0.18423558  0.76690420     0.66270
H794        H  0.15373812  0.22288731  0.80827367     0.15170
H795        H  0.12219377  0.28881708  0.70364009     0.14880
N796        N  0.15926579  0.33099393  0.74711662     0.73980
O797        O  0.12997603  0.15894028  0.78214908    -0.39480
O798        O  0.08026134  0.18115342  0.76332955    -0.39420
O799        O  0.17646928  0.33789566  0.72689440    -0.40120
O800        O  0.14417944  0.35780009  0.75671801    -0.40190
C801        C  0.28158883  0.31699531  0.98982466    -0.12470
C802        C  0.24908825  0.32582343  0.97403356     0.04540
C803        C  0.22622318  0.33878323  0.99149932    -0.07760
C804        C  0.23654257  0.34124490  0.52473584    -0.08500
C805        C  0.26892347  0.33163801  0.54053305    -0.03050
C806        C  0.29211263  0.32063158  0.52284616     0.03760
N807        N  0.32675273  0.31618227  0.53755700     0.66270
H808        H  0.29934676  0.30931815  0.97599454     0.15170
H809        H  0.21905342  0.35006976  0.53851759     0.14880
N810        N  0.19286898  0.34971256  0.97620920     0.73980
O811        O  0.34463153  0.29479114  0.52527042    -0.39480
O812        O  0.34074595  0.33880115  0.55890468    -0.39420
O813        O  0.17805596  0.33471199  0.95051635    -0.40120
O814        O  0.17698105  0.37216148  0.98975402    -0.40190
C815        C  0.29908246  0.37779030  0.75745689    -0.12470
C816        C  0.27517135  0.38544995  0.72940627     0.04540
C817        C  0.24308851  0.39675702  0.73180445    -0.07760
C818        C  0.23531952  0.39825490  0.76186995    -0.08500
C819        C  0.25857049  0.38807149  0.78986764    -0.03050
C820        C  0.29136718  0.37917146  0.78753231     0.03760
N821        N  0.31713752  0.37123042  0.81518946     0.66270
H822        H  0.32396858  0.36982944  0.75597407     0.15170
H823        H  0.21023389  0.40568024  0.76301999     0.14880
N824        N  0.21824338  0.40761857  0.70429535     0.73980
O825        O  0.33691811  0.34423219  0.81500946    -0.39480
O826        O  0.32349772  0.39466372  0.83761421    -0.39420
O827        O  0.20546812  0.38309359  0.68412238    -0.40120
O828        O  0.20409218  0.43920289  0.70382805    -0.40190
C829        C  0.06443288  0.02511555  0.60240108    -0.12470
C830        C  0.06952173  0.04116559  0.63283604     0.04540
C831        C  0.07538717  0.01695850  0.65973320    -0.07760
C832        C  0.07699792  0.97804624  0.65616041    -0.08500
C833        C  0.07041936  0.96172540  0.62621103    -0.03050
C834        C  0.06444949  0.98520951  0.59859348     0.03760
N835        N  0.05834774  0.96941862  0.56710367     0.66270
H836        H  0.05957700  0.04370165  0.58172731     0.15170
H837        H  0.08035589  0.96001067  0.67720971     0.14880
N838        N  0.07527462  0.03051952  0.69067639     0.73980
O839        O  0.04849068  0.99031569  0.54288124    -0.39480
O840        O  0.06468365  0.93515666  0.56308430    -0.39420
O841        O  0.04816240  0.04222050  0.69574811    -0.40120
O842        O  0.09727786  0.01870000  0.71394434    -0.40190
C843        C  0.44779501  0.02533337  0.84955083    -0.12470
C844        C  0.44977153  0.04163865  0.87925940     0.04540
C845        C  0.45164293  0.01808387  0.90650635    -0.07760
C846        C  0.45220364  0.97825744  0.90282800    -0.08500
C847        C  0.45160303  0.96230884  0.87300077    -0.03050
C848        C  0.44953768  0.98630190  0.84628017     0.03760
N849        N  0.45218197  0.97190348  0.81611199     0.66270
H850        H  0.44732146  0.04332927  0.82887079     0.15170
H851        H  0.45402970  0.95961495  0.92328462     0.14880
N852        N  0.45360545  0.03370831  0.93764411     0.73980
O853        O  0.43109690  0.98177131  0.79143984    -0.39480
O854        O  0.47973670  0.95907522  0.81316912    -0.39420
O855        O  0.44652811  0.06792312  0.94086800    -0.40120
O856        O  0.46087418  0.01277520  0.96217264    -0.40190
C857        C  0.48540412  0.82116195  0.51807888    -0.12470
C858        C  0.01878239  0.82268456  0.53429254     0.04540
C859        C  0.04386866  0.82744487  0.51707233    -0.07760
C860        C  0.03508961  0.83065253  0.98386836    -0.08500
C861        C  0.50178586  0.82842042  0.96761276    -0.03050
C862        C  0.47652959  0.82405078  0.98478104     0.03760
N863        N  0.44196178  0.82427021  0.96896916     0.66270
H864        H  0.46618663  0.81872879  0.53150532     0.15170
H865        H  0.05440616  0.83358160  0.97060163     0.14880
N866        N  0.07827383  0.82848273  0.53282989     0.73980
O867        O  0.42112791  0.80511068  0.98018600    -0.39480
O868        O  0.43154212  0.84763321  0.94660712    -0.39420
O869        O  0.09117696  0.79965184  0.54813882    -0.40120
O870        O  0.09696638  0.85421416  0.52580836    -0.40190
C871        C  0.03216557  0.87980728  0.77817675    -0.12470
C872        C  0.49816667  0.88116059  0.77787021     0.04540
C873        C  0.47514529  0.88442939  0.74814755    -0.07760
C874        C  0.48671692  0.88492603  0.71989479    -0.08500
C875        C  0.02075716  0.88257511  0.72027738    -0.03050
C876        C  0.04367226  0.88035505  0.75002023     0.03760
N877        N  0.07841712  0.87485225  0.75235287     0.66270
H878        H  0.05019628  0.87703251  0.80058402     0.15170
H879        H  0.46876117  0.88629917  0.69735147     0.14880
N880        N  0.43996304  0.88525678  0.74584733     0.73980
O881        O  0.09603232  0.90196440  0.74582632    -0.39480
O882        O  0.09244658  0.84669514  0.76792504    -0.39420
O883        O  0.42719632  0.91376925  0.75560431    -0.40120
O884        O  0.42126528  0.86215790  0.72800014    -0.40190
C885        C  0.34748924  0.52608959  0.65176808    -0.12470
C886        C  0.32377465  0.54485675  0.62839633     0.04540
C887        C  0.30258910  0.52348454  0.60453072    -0.07760
C888        C  0.30305594  0.48372830  0.60696420    -0.08500
C889        C  0.32465686  0.46497177  0.63212666    -0.03050
C890        C  0.34782299  0.48645919  0.65428589     0.03760
N891        N  0.36882901  0.46917665  0.68173187     0.66270
H892        H  0.36348007  0.54232837  0.67037256     0.15170
H893        H  0.28586441  0.46718199  0.58954418     0.14880
N894        N  0.28054306  0.54167979  0.57800858     0.73980
O895        O  0.39894335  0.47918029  0.68994643    -0.39480
O896        O  0.35587052  0.45130560  0.70151226    -0.39420
O897        O  0.28882754  0.57268241  0.56689421    -0.40120
O898        O  0.25479563  0.52469185  0.56312611    -0.40190
C899        C  0.21557533  0.78165136  0.64368439    -0.12470
C900        C  0.21128563  0.74444391  0.63184102     0.04540
C901        C  0.17891410  0.73233264  0.61648622    -0.07760
C902        C  0.15253663  0.75753911  0.61275463    -0.08500
C903        C  0.15638726  0.79398851  0.62576754    -0.03050
C904        C  0.18856325  0.80650591  0.64103997     0.03760
N905        N  0.19440255  0.84413067  0.65353889     0.66270
H906        H  0.24021286  0.79165749  0.65496151     0.15170
H907        H  0.12801308  0.74691951  0.60175429     0.14880
N908        N  0.17147868  0.69417907  0.60588908     0.73980
O909        O  0.21759061  0.85026454  0.67754619    -0.39480
O910        O  0.17915905  0.87196546  0.63849532    -0.39420
O911        O  0.17717655  0.66720640  0.62584366    -0.40120
O912        O  0.15148898  0.68857819  0.57955610    -0.40190
C913        C  0.43547406  0.77570255  0.63254895    -0.12470
C914        C  0.46566900  0.75653121  0.63585688     0.04540
C915        C  0.46551727  0.71639794  0.63895178    -0.07760
C916        C  0.43528559  0.69694713  0.63838193    -0.08500
C917        C  0.40515583  0.71653133  0.63414993    -0.03050
C918        C  0.40560877  0.75646158  0.63128824     0.03760
N919        N  0.37607836  0.77841949  0.62817504     0.66270
H920        H  0.43474661  0.80634987  0.63053660     0.15170
H921        H  0.43532997  0.66638805  0.64122577     0.14880
N922        N  0.49526789  0.69479983  0.64189871     0.73980
O923        O  0.37365182  0.80091296  0.65001817    -0.39480
O924        O  0.35700144  0.78246443  0.60107308    -0.39420
O925        O  0.01856283  0.69839829  0.66623305    -0.40120
O926        O  0.49541329  0.66691123  0.62393934    -0.40190
C927        C  0.37338834  0.74828675  0.78432874    -0.12470
C928        C  0.40443217  0.76329131  0.78221578     0.04540
C929        C  0.41351543  0.76529573  0.75249983    -0.07760
C930        C  0.39043080  0.75352251  0.72529589    -0.08500
C931        C  0.35922890  0.73893254  0.72728566    -0.03050
C932        C  0.35046568  0.73604374  0.75712838     0.03760
N933        N  0.31833292  0.72189927  0.76005819     0.66270
H934        H  0.36628979  0.74815384  0.80707485     0.15170
H935        H  0.39757004  0.75348683  0.70259737     0.14880
N936        N  0.44620542  0.77784668  0.74974526     0.73980
O937        O  0.31416256  0.70929182  0.78647214    -0.39480
O938        O  0.29331503  0.72515206  0.73721083    -0.39420
O939        O  0.47062529  0.77574393  0.77329611    -0.40120
O940        O  0.45159250  0.78702712  0.72290687    -0.40190
C941        C  0.17491184  0.52358947  0.86498568    -0.12470
C942        C  0.19882874  0.54303884  0.88747439     0.04540
C943        C  0.22187252  0.52227834  0.91051725    -0.07760
C944        C  0.22281269  0.48264065  0.90803721    -0.08500
C945        C  0.20094554  0.46348639  0.88352372    -0.03050
C946        C  0.17612094  0.48419885  0.86229444     0.03760
N947        N  0.15493738  0.46671757  0.83530872     0.66270
H948        H  0.15761499  0.53938363  0.84692193     0.15170
H949        H  0.24123827  0.46663345  0.92481914     0.14880
N950        N  0.24456097  0.54104370  0.93606001     0.73980
O951        O  0.12414350  0.47324888  0.82903297    -0.39480
O952        O  0.16762299  0.45237904  0.81417130    -0.39420
O953        O  0.23644582  0.57165023  0.94698501    -0.40120
O954        O  0.27117185  0.52513819  0.95009573    -0.40190
C955        C  0.08520163  0.77384993  0.87702770    -0.12470
C956        C  0.05406682  0.75567495  0.87085735     0.04540
C957        C  0.05300546  0.71582861  0.86617234    -0.07760
C958        C  0.08289737  0.69576948  0.86797023    -0.08500
C959        C  0.11389107  0.71438969  0.87458570    -0.03050
C960        C  0.11459831  0.75405251  0.87899958     0.03760
N961        N  0.14487769  0.77546207  0.88369064     0.66270
H962        H  0.08709025  0.80424458  0.88034155     0.15170
H963        H  0.08184872  0.66553127  0.86375983     0.14880
N964        N  0.02221457  0.69516906  0.85953789     0.73980
O965        O  0.15034377  0.79648538  0.86144505    -0.39480
O966        O  0.16206972  0.77985729  0.91154410    -0.39420
O967        O  0.50081500  0.70214590  0.83429395    -0.40120
O968        O  0.01938850  0.66520739  0.87509992    -0.40190
C969        C  0.30315132  0.78344810  0.86235564    -0.12470
C970        C  0.30692367  0.74480234  0.87105167     0.04540
C971        C  0.33938926  0.73061754  0.88265099    -0.07760
C972        C  0.36656452  0.75512773  0.88637235    -0.08500
C973        C  0.36310389  0.79331277  0.87680611    -0.03050
C974        C  0.33089222  0.80789237  0.86483834     0.03760
N975        N  0.32583427  0.84719917  0.85591500     0.66270
H976        H  0.27845126  0.79485029  0.85402705     0.15170
H977        H  0.39107779  0.74306228  0.89441470     0.14880
N978        N  0.34574518  0.69104248  0.88905281     0.73980
O979        O  0.30043372  0.85721356  0.83534727    -0.39480
O980        O  0.34473561  0.87241341  0.87086655    -0.39420
O981        O  0.33701056  0.66753747  0.86691341    -0.40120
O982        O  0.36578700  0.68070663  0.91428781    -0.40190
C983        C  0.16108204  0.76993286  0.77361917    -0.12470
C984        C  0.15635255  0.73109641  0.77759964     0.04540
C985        C  0.13390393  0.71103368  0.75351198    -0.07760
C986        C  0.11626593  0.73044822  0.72663784    -0.08500
C987        C  0.12031562  0.76948235  0.72308042    -0.03050
C988        C  0.14421259  0.78919865  0.74626089     0.03760
N989        N  0.15351971  0.82782424  0.74149358     0.66270
H990        H  0.17910721  0.78512065  0.79135683     0.15170
H991        H  0.09837473  0.71504617  0.70892724     0.14880
N992        N  0.12727191  0.67139038  0.75654231     0.73980
O993        O  0.16107229  0.84971755  0.76494903    -0.39480
O994        O  0.16156921  0.83730760  0.71589394    -0.39420
O995        O  0.11343586  0.65981747  0.77827014    -0.40120
O996        O  0.12915602  0.64939632  0.73419948    -0.40190
C997        C  0.22744856  0.68511477  0.98617063    -0.12470
C998        C  0.25352451  0.68476098  0.97027300     0.04540
C999        C  0.28671946  0.68322976  0.98803674    -0.07760
C1000       C  0.29293931  0.68129807  0.52143938    -0.08500
C1001       C  0.26680214  0.68061613  0.53732559    -0.03050
C1002       C  0.23363769  0.68252607  0.51951133     0.03760
N1003       N  0.20601762  0.68135640  0.53468627     0.66270
H1004       H  0.20203177  0.68570991  0.97244100     0.15170
H1005       H  0.31833173  0.68051435  0.53519218     0.14880
N1006       N  0.31423730  0.68441348  0.97264558     0.73980
O1007       O  0.18031728  0.70045363  0.52327706    -0.39480
O1008       O  0.20501423  0.65684492  0.55605000    -0.39420
O1009       O  0.31338030  0.70585895  0.94880615    -0.40120
O1010       O  0.34102527  0.66782396  0.98513473    -0.40190
C1011       C  0.22503678  0.62089167  0.75733126    -0.12470
C1012       C  0.24926243  0.61515863  0.78551496     0.04540
C1013       C  0.28262631  0.60945301  0.78337728    -0.07760
C1014       C  0.29088515  0.61124498  0.75336359    -0.08500
C1015       C  0.26687823  0.61895118  0.72525884    -0.03050
C1016       C  0.23348919  0.62351963  0.72761865     0.03760
N1017       N  0.20805954  0.63355328  0.70052877     0.66270
H1018       H  0.19953176  0.62612500  0.75850800     0.15170
H1019       H  0.31655675  0.60745458  0.75214468     0.14880
N1020       N  0.30838258  0.60181741  0.81120731     0.73980
O1021       O  0.18664881  0.60911907  0.68832794    -0.39480
O1022       O  0.20280792  0.66810808  0.69347653    -0.39420
O1023       O  0.30269397  0.58034730  0.83309810    -0.40120
O1024       O  0.33783948  0.61274285  0.81227088    -0.40190
O1025       O  0.73469941  0.71083704  0.41828540    -0.82000
C1026       C  0.73958297  0.62158647  0.31629091     0.97350
O1027       O  0.75972908  0.63755011  0.33878340    -0.71120
O1028       O  0.78077481  0.68796128  0.38308955    -0.74710
Al1029     Al  0.75279168  0.64445261  0.38042034     1.48980
C1030       C  0.77710618  0.72060299  0.37074627     0.92610
O1031       O  0.68382926  0.72999638  0.33265760    -0.80930
O1032       O  0.64543377  0.66930973  0.35244771    -0.74490
Al1033     Al  0.71016381  0.71604215  0.37441717     1.90120
O1034       O  0.67994585  0.67718135  0.30592525    -0.73560
O1035       O  0.68005847  0.60501437  0.37073278    -0.73410
O1036       O  0.71027976  0.61354725  0.31908725    -0.79070
O1037       O  0.73375659  0.59482326  0.38185253    -0.77270
O1038       O  0.71471898  0.66802087  0.36495124    -1.13400
O1039       O  0.74910945  0.65057040  0.42294133    -0.72600
C1040       C  0.74529953  0.68195759  0.43533775     0.98120
C1041       C  0.67479981  0.71201630  0.30682432     0.94510
Al1042     Al  0.68167293  0.64307051  0.33954304     1.55560
O1043       O  0.74825265  0.73298123  0.35982876    -0.77220
C1044       C  0.70440469  0.58343514  0.38092819     0.98680
C1045       C  0.64508311  0.69427581  0.37318408     0.93560
O1046       O  0.67198758  0.70590096  0.39021561    -0.82540
O1047       O  0.78452375  0.70906282  0.08786493    -0.82000
C1048       C  0.77790422  0.62518141  0.19473134     0.97350
O1049       O  0.75825731  0.63892625  0.17055736    -0.71120
O1050       O  0.73773610  0.68699361  0.12308476    -0.74710
Al1051     Al  0.76669316  0.64414339  0.12906985     1.48980
C1052       C  0.74101506  0.72027272  0.13359316     0.92610
O1053       O  0.83366575  0.73427764  0.17228135    -0.80930
O1054       O  0.87294283  0.67385041  0.15889589    -0.74490
Al1055     Al  0.80829425  0.71703792  0.13148876     1.90120
O1056       O  0.83558681  0.68385610  0.20306836    -0.73560
O1057       O  0.84056303  0.60753788  0.14440543    -0.73410
O1058       O  0.80764732  0.61806559  0.19343183    -0.79070
O1059       O  0.78706473  0.59512677  0.13109828    -0.77270
O1060       O  0.80402306  0.66958411  0.14407057    -1.13400
O1061       O  0.77178552  0.64820628  0.08655960    -0.72600
C1062       C  0.77485276  0.67916817  0.07239818     0.98120
C1063       C  0.84064864  0.71857169  0.19954659     0.94510
Al1064     Al  0.83657004  0.64741819  0.17234021     1.55560
O1065       O  0.76970202  0.73356127  0.14425178    -0.77220
C1066       C  0.81690567  0.58492294  0.13386539     0.98680
C1067       C  0.87381451  0.69667263  0.13611823     0.93560
O1068       O  0.84727849  0.70671350  0.11742545    -0.82540
O1069       O  0.92086132  0.80254687  0.39170319    -0.82000
C1070       C  0.98782032  0.87468888  0.30841586     0.97350
O1071       O  0.95882971  0.88308935  0.31092586    -0.71120
O1072       O  0.92780908  0.81930860  0.30469943    -0.74710
Al1073     Al  0.93069700  0.85755395  0.33456979     1.48980
C1074       C  0.92280882  0.78477034  0.30934918     0.92610
O1075       O  0.99518850  0.76710745  0.36341050    -0.80930
O1076       O  0.99965031  0.85702391  0.41743237    -0.74490
Al1077     Al  0.95794142  0.78804798  0.37649337     1.90120
O1078       O  0.52933025  0.81373066  0.37991309    -0.73560
O1079       O  0.98466813  0.90859055  0.37154802    -0.73410
O1080       O  0.50813154  0.86041148  0.33191141    -0.79070
O1081       O  0.93062779  0.89975468  0.36183332    -0.77270
O1082       O  0.96359001  0.83441510  0.36188858    -1.13400
O1083       O  0.89460773  0.83474986  0.35034484    -0.72600
C1084       C  0.89408881  0.81308974  0.37380856     0.98120
C1085       C  0.52447317  0.77974963  0.37116499     0.94510
Al1086     Al  0.00234499  0.85808700  0.37424456     1.55560
O1087       O  0.93061945  0.76995245  0.33692320    -0.77220
C1088       C  0.95574659  0.92120019  0.36974457     0.98680
C1089       C  0.99425270  0.82778926  0.43278846     0.93560
O1090       O  0.98302539  0.79750834  0.41883154    -0.82540
O1091       O  0.59844317  0.80139387  0.11187593    -0.82000
C1092       C  0.53107403  0.87709081  0.18977561     0.97350
O1093       O  0.56015544  0.88618160  0.18712503    -0.71120
O1094       O  0.59270368  0.82337782  0.19801055    -0.74710
Al1095     Al  0.58904561  0.85944112  0.16534573     1.48980
C1096       C  0.59948954  0.78917346  0.19535943     0.92610
O1097       O  0.52461293  0.76802986  0.14328687    -0.80930
O1098       O  0.52208494  0.85407328  0.08249891    -0.74490
Al1099     Al  0.56176041  0.78754782  0.12833935     1.90120
O1100       O  0.99068412  0.81282140  0.12143269    -0.73560
O1101       O  0.53562865  0.90825653  0.12514121    -0.73410
O1102       O  0.51087635  0.86217298  0.16670603    -0.79070
O1103       O  0.58933088  0.89900598  0.13511089    -0.77270
O1104       O  0.55624910  0.83460849  0.13966533    -1.13400
O1105       O  0.62508765  0.83593556  0.15090389    -0.72600
C1106       C  0.62539045  0.81314412  0.12867486     0.98120
C1107       C  0.49538044  0.77996902  0.13361152     0.94510
Al1108     Al  0.51779452  0.85759312  0.12497623     1.55560
O1109       O  0.58985318  0.77241068  0.16900501    -0.77220
C1110       C  0.56478005  0.92058726  0.12658086     0.98680
C1111       C  0.52643351  0.82357222  0.06912787     0.93560
O1112       O  0.53616251  0.79377714  0.08516765    -0.82540
O1113       O  0.67145559  0.30158264  0.39197262    -0.82000
C1114       C  0.74655656  0.38181985  0.31976698     0.97350
O1115       O  0.71698886  0.39061699  0.32057384    -0.71120
O1116       O  0.68677726  0.32670102  0.30839401    -0.74710
Al1117     Al  0.68592825  0.36187318  0.33972653     1.48980
C1118       C  0.67947587  0.29243906  0.31043511     0.92610
O1119       O  0.74962383  0.27226492  0.36771919    -0.80930
O1120       O  0.74707012  0.35764025  0.42566851    -0.74490
Al1121     Al  0.71070122  0.29020892  0.37917370     1.90120
O1122       O  0.78259066  0.31675103  0.39139401    -0.73560
O1123       O  0.73628362  0.41148033  0.38178838    -0.73410
O1124       O  0.76484680  0.36570933  0.34362495    -0.79070
O1125       O  0.68251740  0.40091119  0.36849857    -0.77270
O1126       O  0.71695947  0.33761769  0.36793560    -1.13400
O1127       O  0.64767976  0.33635605  0.35104538    -0.72600
C1128       C  0.64555150  0.31293935  0.37310613     0.98120
C1129       C  0.77849527  0.28368917  0.38032936     0.94510
Al1130     Al  0.75479841  0.36118992  0.38435235     1.55560
O1131       O  0.68614179  0.27532569  0.33723982    -0.77220
C1132       C  0.70671246  0.42302456  0.37843119     0.98680
C1133       C  0.74198817  0.32692604  0.43920680     0.93560
O1134       O  0.73304632  0.29696438  0.42346741    -0.82540
O1135       O  0.85030153  0.30316880  0.11808159    -0.82000
C1136       C  0.78456848  0.37966753  0.19854230     0.97350
O1137       O  0.81403188  0.38705797  0.19615476    -0.71120
O1138       O  0.84266269  0.32249985  0.20374671    -0.74710
Al1139     Al  0.84167053  0.36003198  0.17327085     1.48980
C1140       C  0.84749356  0.28802341  0.20018856     0.92610
O1141       O  0.77397842  0.27148004  0.14595126    -0.80930
O1142       O  0.77301904  0.36085796  0.09017385    -0.74490
Al1143     Al  0.81218431  0.29092367  0.13302745     1.90120
O1144       O  0.74163762  0.31895681  0.12818354    -0.73560
O1145       O  0.78992791  0.41217086  0.13500014    -0.73410
O1146       O  0.76409479  0.36535176  0.17546138    -0.79070
O1147       O  0.84366927  0.40183317  0.14538085    -0.77270
O1148       O  0.80811706  0.33768893  0.14631006    -1.13400
O1149       O  0.87745743  0.33543464  0.15832176    -0.72600
C1150       C  0.87740526  0.31259051  0.13591565     0.98120
C1151       C  0.74516906  0.28456945  0.13643442     0.94510
Al1152     Al  0.77021317  0.36243807  0.13326602     1.55560
O1153       O  0.83835373  0.27266099  0.17326385    -0.77220
C1154       C  0.81937312  0.42405338  0.13709629     0.98680
C1155       C  0.77732937  0.33130640  0.07547107     0.93560
O1156       O  0.78794490  0.30095245  0.09018436    -0.82540
O1157       O  0.98385318  0.20899184  0.42305314    -0.82000
C1158       C  0.98728824  0.12591465  0.31702184     0.97350
O1159       O  0.00809397  0.14102501  0.33961069    -0.71120
O1160       O  0.53115773  0.18941669  0.38580501    -0.74710
Al1161     Al  0.00257466  0.14566289  0.38194765     1.48980
C1162       C  0.52711849  0.22239993  0.37407171     0.92610
O1163       O  0.93422987  0.23294455  0.33820734    -0.80930
O1164       O  0.89529765  0.16850479  0.35835304    -0.74490
Al1165     Al  0.95991237  0.21717822  0.37932202     1.90120
O1166       O  0.92682521  0.18045189  0.31083866    -0.73560
O1167       O  0.93066507  0.10479550  0.37311825    -0.73410
O1168       O  0.95819979  0.11786310  0.32017096    -0.79070
O1169       O  0.98422302  0.09534390  0.38146154    -0.77270
O1170       O  0.96412280  0.16945778  0.36826527    -1.13400
O1171       O  0.49959237  0.14912500  0.42486320    -0.72600
C1172       C  0.99448560  0.17908106  0.43873566     0.98120
C1173       C  0.92389128  0.21559454  0.31234631     0.94510
Al1174     Al  0.93058547  0.14483843  0.34312424     1.55560
O1175       O  0.99816437  0.23521186  0.36532940    -0.77220
C1176       C  0.95516219  0.08287266  0.38009363     0.98680
C1177       C  0.89456314  0.19336908  0.37891036     0.93560
O1178       O  0.92128430  0.20753507  0.39430672    -0.82540
O1179       O  0.53787436  0.20931236  0.09138636    -0.82000
C1180       C  0.53370412  0.12606468  0.19976870     0.97350
O1181       O  0.51337244  0.14066570  0.17627227    -0.71120
O1182       O  0.49149895  0.18960333  0.12915698    -0.74710
Al1183     Al  0.51933567  0.14557738  0.13385723     1.48980
C1184       C  0.49605060  0.22314931  0.13911476     0.92610
O1185       O  0.58906822  0.23368859  0.17512052    -0.80930
O1186       O  0.62695324  0.16888957  0.15706934    -0.74490
Al1187     Al  0.56268448  0.21709714  0.13464902     1.90120
O1188       O  0.59565408  0.18194126  0.20430106    -0.73560
O1189       O  0.59067895  0.10367846  0.14520481    -0.73410
O1190       O  0.56311623  0.11957627  0.19733186    -0.79070
O1191       O  0.53677973  0.09512110  0.13509755    -0.77270
O1192       O  0.55795096  0.16947154  0.14720919    -1.13400
O1193       O  0.52281000  0.14905902  0.09061852    -0.72600
C1194       C  0.52760327  0.17937237  0.07620921     0.98120
C1195       C  0.59871295  0.21709967  0.20180786     0.94510
Al1196     Al  0.59122039  0.14535144  0.17333677     1.55560
O1197       O  0.52519668  0.23547873  0.14828882    -0.77220
C1198       C  0.56556603  0.08235254  0.13684807     0.98680
C1199       C  0.62722377  0.19327430  0.13531655     0.93560
O1200       O  0.60033769  0.20623274  0.11938181    -0.82540
C1201       C  0.53365641  0.16691149  0.49018783    -0.12470
C1202       C  0.00223853  0.17924951  0.47389572     0.04540
C1203       C  0.97911761  0.19119597  0.49139551    -0.07760
C1204       C  0.98867355  0.19227725  0.02478736    -0.08500
C1205       C  0.52023579  0.18021863  0.04108988    -0.03050
C1206       C  0.54307366  0.16708669  0.02358347     0.03760
N1207       N  0.57570387  0.15391351  0.03893485     0.66270
H1208       H  0.55123317  0.15763465  0.47663734     0.15170
H1209       H  0.97085786  0.20098071  0.03828300     0.14880
N1210       N  0.94525859  0.19915990  0.47594697     0.73980
O1211       O  0.59063874  0.13073527  0.02509808    -0.39480
O1212       O  0.59128885  0.16838211  0.06454776    -0.39420
O1213       O  0.92966898  0.17693839  0.45505009    -0.40120
O1214       O  0.92919317  0.22374905  0.48714773    -0.40190
C1215       C  0.53006146  0.10827615  0.28785945    -0.12470
C1216       C  0.99719270  0.11829752  0.28666309     0.04540
C1217       C  0.97594529  0.12530830  0.25676134    -0.07760
C1218       C  0.98868095  0.12488242  0.22927386    -0.08500
C1219       C  0.52244175  0.11763181  0.23016603    -0.03050
C1220       C  0.54339288  0.10711351  0.26044609     0.03760
N1221       N  0.57805891  0.09680603  0.26533584     0.66270
H1222       H  0.54579237  0.10196187  0.31097578     0.15170
H1223       H  0.97178144  0.13189797  0.20691733     0.14880
N1224       N  0.94200909  0.13598378  0.25382061     0.73980
O1225       O  0.59616533  0.09624285  0.29314707    -0.39480
O1226       O  0.58932867  0.08156221  0.24385896    -0.39420
O1227       O  0.93143849  0.16590016  0.23869856    -0.40120
O1228       O  0.92134709  0.11192254  0.25982357    -0.40190
C1229       C  0.65552385  0.24931722  0.11887181    -0.12470
C1230       C  0.65852913  0.21209754  0.13120546     0.04540
C1231       C  0.69076241  0.19756764  0.14342044    -0.07760
C1232       C  0.71869656  0.22167431  0.14500127    -0.08500
C1233       C  0.71527216  0.25957136  0.13390386    -0.03050
C1234       C  0.68304574  0.27281150  0.11985417     0.03760
N1235       N  0.67740973  0.31018965  0.10647634     0.66270
H1236       H  0.63123657  0.26121701  0.10914087     0.15170
H1237       H  0.74328394  0.21063732  0.15473990     0.14880
N1238       N  0.69566568  0.15857267  0.15337419     0.73980
O1239       O  0.65889372  0.33255252  0.11703914    -0.39480
O1240       O  0.68558223  0.31814826  0.08060794    -0.39420
O1241       O  0.67737408  0.13296820  0.13827346    -0.40120
O1242       O  0.72101273  0.14906366  0.17422163    -0.40190
C1243       C  0.93968262  0.30689993  0.14786339    -0.12470
C1244       C  0.90825553  0.29232616  0.13326355     0.04540
C1245       C  0.90646004  0.25514826  0.12084542    -0.07760
C1246       C  0.93527356  0.23384252  0.12355015    -0.08500
C1247       C  0.96668587  0.24791107  0.13847485    -0.03050
C1248       C  0.96881545  0.28525317  0.15074778     0.03760
N1249       N  0.49984239  0.30130600  0.16721611     0.66270
H1250       H  0.94151912  0.33483036  0.15828371     0.15170
H1251       H  0.93272650  0.20554638  0.11378985     0.14880
N1252       N  0.87540397  0.23718754  0.10717924     0.73980
O1253       O  0.50729746  0.33491557  0.16100465    -0.39480
O1254       O  0.51637778  0.28504698  0.19189636    -0.39420
O1255       O  0.86084750  0.24520813  0.07893976    -0.40120
O1256       O  0.86647932  0.20802187  0.12047820    -0.40190
C1257       C  0.89281946  0.28848036  0.24779105    -0.12470
C1258       C  0.86740226  0.26776672  0.22764394     0.04540
C1259       C  0.86149031  0.22983893  0.23506893    -0.07760
C1260       C  0.88036324  0.21395639  0.26303235    -0.08500
C1261       C  0.90530777  0.23491185  0.28359371    -0.03050
C1262       C  0.91163425  0.27259422  0.27575110     0.03760
N1263       N  0.93751829  0.29472105  0.29510745     0.66270
H1264       H  0.89798187  0.31755960  0.24189813     0.15170
H1265       H  0.87546505  0.18473819  0.26864736     0.14880
N1266       N  0.83587047  0.20753613  0.21544846     0.73980
O1267       O  0.96005167  0.30900689  0.28295566    -0.39480
O1268       O  0.93388939  0.30673603  0.32153791    -0.39420
O1269       O  0.83812396  0.19914918  0.18765875    -0.40120
O1270       O  0.81518696  0.18981998  0.22793803    -0.40190
C1271       C  0.55421960  0.28608851  0.36917744    -0.12470
C1272       C  0.55671711  0.24621231  0.37170918     0.04540
C1273       C  0.58822417  0.22969016  0.37398607    -0.07760
C1274       C  0.61619627  0.25283340  0.37572649    -0.08500
C1275       C  0.61404186  0.29249903  0.37376122    -0.03050
C1276       C  0.58250725  0.30957371  0.37001480     0.03760
N1277       N  0.57880133  0.35014590  0.36831252     0.66270
H1278       H  0.53024948  0.29908289  0.36752338     0.15170
H1279       H  0.63995454  0.23934228  0.37710703     0.14880
N1280       N  0.59223944  0.18944305  0.37289996     0.73980
O1281       O  0.55105324  0.36460876  0.35570526    -0.39480
O1282       O  0.60222014  0.37163998  0.38177628    -0.39420
O1283       O  0.57621149  0.17122856  0.34934291    -0.40120
O1284       O  0.61593370  0.17345228  0.39203811    -0.40190
C1285       C  0.80483292  0.22785997  0.36104906    -0.12470
C1286       C  0.80743367  0.25806388  0.38242087     0.04540
C1287       C  0.83736603  0.26229504  0.40573759    -0.07760
C1288       C  0.86411429  0.23816968  0.40583199    -0.08500
C1289       C  0.86262785  0.21018166  0.38267798    -0.03050
C1290       C  0.83199254  0.20427933  0.36070408     0.03760
N1291       N  0.82826602  0.17594317  0.33678298     0.66270
H1292       H  0.78194960  0.22348195  0.34342433     0.15170
H1293       H  0.88702128  0.24301327  0.42331164     0.14880
N1294       N  0.84140774  0.29065712  0.42973463     0.73980
O1295       O  0.80802009  0.14895352  0.33697040    -0.39480
O1296       O  0.83890261  0.18252270  0.31197068    -0.39420
O1297       O  0.85039759  0.28065552  0.45857930    -0.40120
O1298       O  0.84527391  0.32482978  0.42223761    -0.40190
C1299       C  0.64749222  0.23733586  0.28540121    -0.12470
C1300       C  0.65980795  0.27369127  0.28181260     0.04540
C1301       C  0.64954024  0.29276733  0.25200745    -0.07760
C1302       C  0.62871752  0.27437637  0.22649892    -0.08500
C1303       C  0.61651346  0.23787064  0.23021790    -0.03050
C1304       C  0.62538322  0.21983639  0.26047985     0.03760
N1305       N  0.61135661  0.18423561  0.26690420     0.66270
H1306       H  0.65373810  0.22288734  0.30827368     0.15170
H1307       H  0.62219383  0.28881708  0.20364008     0.14880
N1308       N  0.65926590  0.33099390  0.24711661     0.73980
O1309       O  0.62997601  0.15894031  0.28214909    -0.39480
O1310       O  0.58026133  0.18115346  0.26332954    -0.39420
O1311       O  0.67646946  0.33789557  0.22689443    -0.40120
O1312       O  0.64417954  0.35780010  0.25671793    -0.40190
C1313       C  0.78158884  0.31699533  0.48982467    -0.12470
C1314       C  0.74908825  0.32582342  0.47403358     0.04540
C1315       C  0.72622316  0.33878317  0.49149934    -0.07760
C1316       C  0.73654259  0.34124496  0.02473583    -0.08500
C1317       C  0.76892348  0.33163803  0.04053305    -0.03050
C1318       C  0.79211263  0.32063155  0.02284616     0.03760
N1319       N  0.82675273  0.31618222  0.03755700     0.66270
H1320       H  0.79934677  0.30931821  0.47599455     0.15170
H1321       H  0.71905346  0.35006986  0.03851757     0.14880
N1322       N  0.69286896  0.34971247  0.47620923     0.73980
O1323       O  0.84463152  0.29479107  0.02527043    -0.39480
O1324       O  0.84074596  0.33880110  0.05890468    -0.39420
O1325       O  0.67805595  0.33471189  0.45051637    -0.40120
O1326       O  0.67698101  0.37216136  0.48975405    -0.40190
C1327       C  0.79908244  0.37779023  0.25745689    -0.12470
C1328       C  0.77517134  0.38544991  0.22940628     0.04540
C1329       C  0.74308851  0.39675704  0.23180446    -0.07760
C1330       C  0.73531953  0.39825493  0.26186996    -0.08500
C1331       C  0.75857049  0.38807148  0.28986765    -0.03050
C1332       C  0.79136717  0.37917140  0.28753231     0.03760
N1333       N  0.81713750  0.37123031  0.31518945     0.66270
H1334       H  0.82396854  0.36982933  0.25597406     0.15170
H1335       H  0.71023391  0.40568032  0.26302001     0.14880
N1336       N  0.71824339  0.40761863  0.20429537     0.73980
O1337       O  0.83691804  0.34423203  0.31500945    -0.39480
O1338       O  0.82349775  0.39466360  0.33761421    -0.39420
O1339       O  0.70546813  0.38309369  0.18412236    -0.40120
O1340       O  0.70409220  0.43920296  0.20382810    -0.40190
C1341       C  0.56443287  0.02511557  0.10240110    -0.12470
C1342       C  0.56952170  0.04116560  0.13283605     0.04540
C1343       C  0.57538710  0.01695852  0.15973322    -0.07760
C1344       C  0.57699786  0.97804626  0.15616043    -0.08500
C1345       C  0.57041932  0.96172541  0.12621105    -0.03050
C1346       C  0.56444949  0.98520953  0.09859350     0.03760
N1347       N  0.55834776  0.96941864  0.06710369     0.66270
H1348       H  0.55957702  0.04370167  0.08172733     0.15170
H1349       H  0.58035581  0.96001068  0.17720973     0.14880
N1350       N  0.57527454  0.03051954  0.19067641     0.73980
O1351       O  0.54849071  0.99031570  0.04288126    -0.39480
O1352       O  0.56468367  0.93515667  0.06308433    -0.39420
O1353       O  0.54816232  0.04222055  0.19574810    -0.40120
O1354       O  0.59727775  0.01869998  0.21394436    -0.40190
C1355       C  0.94779498  0.02533337  0.34955082    -0.12470
C1356       C  0.94977151  0.04163865  0.37925940     0.04540
C1357       C  0.95164292  0.01808387  0.40650635    -0.07760
C1358       C  0.95220363  0.97825743  0.40282800    -0.08500
C1359       C  0.95160302  0.96230883  0.37300077    -0.03050
C1360       C  0.94953765  0.98630190  0.34628016     0.03760
N1361       N  0.95218193  0.97190348  0.31611198     0.66270
H1362       H  0.94732141  0.04332927  0.32887078     0.15170
H1363       H  0.95402971  0.95961495  0.42328462     0.14880
N1364       N  0.95360545  0.03370831  0.43764411     0.73980
O1365       O  0.93109685  0.98177129  0.29143984    -0.39480
O1366       O  0.97973666  0.95907524  0.31316910    -0.39420
O1367       O  0.94652809  0.06792311  0.44086800    -0.40120
O1368       O  0.96087420  0.01277521  0.46217264    -0.40190
C1369       C  0.98540412  0.82116198  0.01807887    -0.12470
C1370       C  0.51878237  0.82268459  0.03429255     0.04540
C1371       C  0.54386864  0.82744485  0.01707234    -0.07760
C1372       C  0.53508958  0.83065260  0.48386837    -0.08500
C1373       C  0.00178587  0.82842040  0.46761275    -0.03050
C1374       C  0.97652961  0.82405071  0.48478104     0.03760
N1375       N  0.94196179  0.82427009  0.46896916     0.66270
H1376       H  0.96618663  0.81872886  0.03150530     0.15170
H1377       H  0.55440613  0.83358170  0.47060163     0.14880
N1378       N  0.57827382  0.82848265  0.03282990     0.73980
O1379       O  0.92112795  0.80511052  0.48018599    -0.39480
O1380       O  0.93154211  0.84763312  0.44660714    -0.39420
O1381       O  0.59117692  0.79965173  0.04813879    -0.40120
O1382       O  0.59696638  0.85421408  0.02580840    -0.40190
C1383       C  0.53216556  0.87980725  0.27817677    -0.12470
C1384       C  0.99816666  0.88116061  0.27787020     0.04540
C1385       C  0.97514528  0.88442939  0.24814754    -0.07760
C1386       C  0.98671690  0.88492603  0.21989478    -0.08500
C1387       C  0.52075716  0.88257509  0.22027739    -0.03050
C1388       C  0.54367226  0.88035501  0.25002024     0.03760
N1389       N  0.57841711  0.87485216  0.25235289     0.66270
H1390       H  0.55019628  0.87703247  0.30058403     0.15170
H1391       H  0.96876115  0.88629916  0.19735146     0.14880
N1392       N  0.93996303  0.88525677  0.24584732     0.73980
O1393       O  0.59603234  0.90196430  0.24582636    -0.39480
O1394       O  0.59244655  0.84669503  0.26792503    -0.39420
O1395       O  0.92719630  0.91376924  0.25560430    -0.40120
O1396       O  0.92126527  0.86215789  0.22800013    -0.40190
C1397       C  0.84748921  0.52608959  0.15176809    -0.12470
C1398       C  0.82377461  0.54485674  0.12839634     0.04540
C1399       C  0.80258906  0.52348453  0.10453073    -0.07760
C1400       C  0.80305591  0.48372829  0.10696422    -0.08500
C1401       C  0.82465682  0.46497176  0.13212667    -0.03050
C1402       C  0.84782295  0.48645919  0.15428591     0.03760
N1403       N  0.86882897  0.46917665  0.18173189     0.66270
H1404       H  0.86348002  0.54232837  0.17037257     0.15170
H1405       H  0.78586438  0.46718197  0.08954420     0.14880
N1406       N  0.78054303  0.54167977  0.07800859     0.73980
O1407       O  0.89894330  0.47918030  0.18994646    -0.39480
O1408       O  0.85587048  0.45130559  0.20151227    -0.39420
O1409       O  0.78882750  0.57268239  0.06689422    -0.40120
O1410       O  0.75479560  0.52469184  0.06312612    -0.40190
C1411       C  0.71557532  0.78165139  0.14368437    -0.12470
C1412       C  0.71128562  0.74444394  0.13184101     0.04540
C1413       C  0.67891409  0.73233267  0.11648621    -0.07760
C1414       C  0.65253662  0.75753914  0.11275461    -0.08500
C1415       C  0.65638725  0.79398854  0.12576752    -0.03050
C1416       C  0.68856324  0.80650594  0.14103995     0.03760
N1417       N  0.69440254  0.84413070  0.15353886     0.66270
H1418       H  0.74021285  0.79165751  0.15496149     0.15170
H1419       H  0.62801307  0.74691954  0.10175428     0.14880
N1420       N  0.67147866  0.69417910  0.10588908     0.73980
O1421       O  0.71759061  0.85026458  0.17754615    -0.39480
O1422       O  0.67915904  0.87196548  0.13849529    -0.39420
O1423       O  0.67717653  0.66720643  0.12584366    -0.40120
O1424       O  0.65148897  0.68857822  0.07955609    -0.40190
C1425       C  0.93547404  0.77570255  0.13254893    -0.12470
C1426       C  0.96566898  0.75653121  0.13585686     0.04540
C1427       C  0.96551725  0.71639794  0.13895177    -0.07760
C1428       C  0.93528558  0.69694713  0.13838192    -0.08500
C1429       C  0.90515582  0.71653133  0.13414992    -0.03050
C1430       C  0.90560875  0.75646158  0.13128822     0.03760
N1431       N  0.87607834  0.77841949  0.12817503     0.66270
H1432       H  0.93474659  0.80634987  0.13053659     0.15170
H1433       H  0.93532996  0.66638805  0.14122576     0.14880
N1434       N  0.99526787  0.69479983  0.14189870     0.73980
O1435       O  0.87365181  0.80091296  0.15001815    -0.39480
O1436       O  0.85700142  0.78246443  0.10107306    -0.39420
O1437       O  0.51856284  0.69839829  0.16623304    -0.40120
O1438       O  0.99541328  0.66691123  0.12393933    -0.40190
C1439       C  0.87338834  0.74828676  0.28432872    -0.12470
C1440       C  0.90443217  0.76329132  0.28221577     0.04540
C1441       C  0.91351543  0.76529573  0.25249982    -0.07760
C1442       C  0.89043079  0.75352252  0.22529587    -0.08500
C1443       C  0.85922889  0.73893254  0.22728565    -0.03050
C1444       C  0.85046568  0.73604375  0.25712837     0.03760
N1445       N  0.81833291  0.72189928  0.26005819     0.66270
H1446       H  0.86628979  0.74815385  0.30707484     0.15170
H1447       H  0.89757003  0.75348684  0.20259735     0.14880
N1448       N  0.94620542  0.77784669  0.24974524     0.73980
O1449       O  0.81416256  0.70929184  0.28647213    -0.39480
O1450       O  0.79331502  0.72515208  0.23721083    -0.39420
O1451       O  0.97062529  0.77574394  0.27329609    -0.40120
O1452       O  0.95159249  0.78702711  0.22290685    -0.40190
C1453       C  0.67491183  0.52358947  0.36498568    -0.12470
C1454       C  0.69882873  0.54303885  0.38747440     0.04540
C1455       C  0.72187250  0.52227835  0.41051726    -0.07760
C1456       C  0.72281268  0.48264067  0.40803722    -0.08500
C1457       C  0.70094554  0.46348640  0.38352373    -0.03050
C1458       C  0.67612094  0.48419886  0.36229445     0.03760
N1459       N  0.65493738  0.46671757  0.33530872     0.66270
H1460       H  0.65761498  0.53938364  0.34692193     0.15170
H1461       H  0.74123826  0.46663347  0.42481915     0.14880
N1462       N  0.74456095  0.54104371  0.43606003     0.73980
O1463       O  0.62414350  0.47324888  0.32903297    -0.39480
O1464       O  0.66762299  0.45237904  0.31417130    -0.39420
O1465       O  0.73644579  0.57165025  0.44698501    -0.40120
O1466       O  0.77117183  0.52513821  0.45009575    -0.40190
C1467       C  0.58520161  0.77384996  0.37702766    -0.12470
C1468       C  0.55406681  0.75567497  0.37085736     0.04540
C1469       C  0.55300545  0.71582862  0.36617238    -0.07760
C1470       C  0.58289736  0.69576950  0.36797026    -0.08500
C1471       C  0.61389106  0.71438972  0.37458569    -0.03050
C1472       C  0.61459829  0.75405254  0.37899954     0.03760
N1473       N  0.64487767  0.77546211  0.38369056     0.66270
H1474       H  0.58709022  0.80424462  0.38034150     0.15170
H1475       H  0.58184871  0.66553128  0.36375989     0.14880
N1476       N  0.52221457  0.69516907  0.35953797     0.73980
O1477       O  0.65034373  0.79648539  0.36144495    -0.39480
O1478       O  0.66206971  0.77985737  0.41154401    -0.39420
O1479       O  0.00081499  0.70214586  0.33429399    -0.40120
O1480       O  0.51938852  0.66520742  0.37510004    -0.40190
C1481       C  0.80315132  0.78344810  0.36235563    -0.12470
C1482       C  0.80692367  0.74480234  0.37105167     0.04540
C1483       C  0.83938926  0.73061755  0.38265101    -0.07760
C1484       C  0.86656451  0.75512773  0.38637236    -0.08500
C1485       C  0.86310389  0.79331277  0.37680610    -0.03050
C1486       C  0.83089222  0.80789237  0.36483832     0.03760
N1487       N  0.82583427  0.84719916  0.35591497     0.66270
H1488       H  0.77845126  0.79485029  0.35402702     0.15170
H1489       H  0.89107779  0.74306229  0.39441473     0.14880
N1490       N  0.84574518  0.69104249  0.38905285     0.73980
O1491       O  0.80043373  0.85721354  0.33534722    -0.39480
O1492       O  0.84473560  0.87241341  0.37086652    -0.39420
O1493       O  0.83701056  0.66753746  0.36691346    -0.40120
O1494       O  0.86578699  0.68070666  0.41428786    -0.40190
C1495       C  0.66108205  0.76993286  0.27361915    -0.12470
C1496       C  0.65635256  0.73109641  0.27759962     0.04540
C1497       C  0.63390395  0.71103368  0.25351196    -0.07760
C1498       C  0.61626595  0.73044822  0.22663782    -0.08500
C1499       C  0.62031563  0.76948235  0.22308040    -0.03050
C1500       C  0.64421260  0.78919866  0.24626087     0.03760
N1501       N  0.65351971  0.82782425  0.24149357     0.66270
H1502       H  0.67910721  0.78512065  0.29135682     0.15170
H1503       H  0.59837477  0.71504616  0.20892721     0.14880
N1504       N  0.62727194  0.67139038  0.25654228     0.73980
O1505       O  0.66107228  0.84971756  0.26494902    -0.39480
O1506       O  0.66156922  0.83730761  0.21589393    -0.39420
O1507       O  0.61343588  0.65981745  0.27827009    -0.40120
O1508       O  0.62915607  0.64939632  0.23419945    -0.40190
C1509       C  0.72744854  0.68511479  0.48617063    -0.12470
C1510       C  0.75352450  0.68476101  0.47027300     0.04540
C1511       C  0.78671945  0.68322979  0.48803673    -0.07760
C1512       C  0.79293930  0.68129809  0.02143938    -0.08500
C1513       C  0.76680213  0.68061613  0.03732558    -0.03050
C1514       C  0.73363767  0.68252605  0.01951132     0.03760
N1515       N  0.70601760  0.68135637  0.03468626     0.66270
H1516       H  0.70203176  0.68570993  0.47244101     0.15170
H1517       H  0.81833172  0.68051439  0.03519218     0.14880
N1518       N  0.81423729  0.68441352  0.47264558     0.73980
O1519       O  0.68031725  0.70045359  0.02327704    -0.39480
O1520       O  0.70501422  0.65684491  0.05604999    -0.39420
O1521       O  0.81338028  0.70585901  0.44880615    -0.40120
O1522       O  0.84102525  0.66782401  0.48513472    -0.40190
C1523       C  0.72503677  0.62089167  0.25733126    -0.12470
C1524       C  0.74926242  0.61515864  0.28551497     0.04540
C1525       C  0.78262630  0.60945304  0.28337728    -0.07760
C1526       C  0.79088514  0.61124501  0.25336359    -0.08500
C1527       C  0.76687822  0.61895118  0.22525884    -0.03050
C1528       C  0.73348917  0.62351961  0.22761865     0.03760
N1529       N  0.70805951  0.63355322  0.20052876     0.66270
H1530       H  0.69953175  0.62612497  0.25850800     0.15170
H1531       H  0.81655674  0.60745462  0.25214469     0.14880
N1532       N  0.80838258  0.60181746  0.31120731     0.73980
O1533       O  0.68664890  0.60911892  0.18832786    -0.39480
O1534       O  0.70280778  0.66810801  0.19347657    -0.39420
O1535       O  0.80269399  0.58034735  0.33309811    -0.40120
O1536       O  0.83783947  0.61274293  0.31227088    -0.40190
O1537       O  0.73469942  0.71083703  0.91828541    -0.82000
C1538       C  0.73958297  0.62158646  0.81629091     0.97350
O1539       O  0.75972908  0.63755010  0.83878340    -0.71120
O1540       O  0.78077482  0.68796127  0.88308955    -0.74710
Al1541     Al  0.75279169  0.64445260  0.88042034     1.48980
C1542       C  0.77710619  0.72060298  0.87074627     0.92610
O1543       O  0.68382927  0.72999637  0.83265761    -0.80930
O1544       O  0.64543378  0.66930972  0.85244772    -0.74490
Al1545     Al  0.71016382  0.71604214  0.87441718     1.90120
O1546       O  0.67994585  0.67718134  0.80592526    -0.73560
O1547       O  0.68005848  0.60501436  0.87073278    -0.73410
O1548       O  0.71027976  0.61354725  0.81908724    -0.79070
O1549       O  0.73375660  0.59482325  0.88185253    -0.77270
O1550       O  0.71471899  0.66802087  0.86495124    -1.13400
O1551       O  0.74910946  0.65057039  0.92294133    -0.72600
C1552       C  0.74529954  0.68195757  0.93533775     0.98120
C1553       C  0.67479981  0.71201630  0.80682433     0.94510
Al1554     Al  0.68167293  0.64307050  0.83954304     1.55560
O1555       O  0.74825266  0.73298122  0.85982876    -0.77220
C1556       C  0.70440470  0.58343513  0.88092819     0.98680
C1557       C  0.64508312  0.69427580  0.87318409     0.93560
O1558       O  0.67198759  0.70590094  0.89021562    -0.82540
O1559       O  0.78452376  0.70906282  0.58786493    -0.82000
C1560       C  0.77790422  0.62518140  0.69473134     0.97350
O1561       O  0.75825732  0.63892624  0.67055736    -0.71120
O1562       O  0.73773611  0.68699360  0.62308476    -0.74710
Al1563     Al  0.76669317  0.64414338  0.62906985     1.48980
C1564       C  0.74101507  0.72027271  0.63359316     0.92610
O1565       O  0.83366575  0.73427763  0.67228135    -0.80930
O1566       O  0.87294284  0.67385042  0.65889590    -0.74490
Al1567     Al  0.80829426  0.71703792  0.63148876     1.90120
O1568       O  0.83558681  0.68385610  0.70306836    -0.73560
O1569       O  0.84056304  0.60753789  0.64440543    -0.73410
O1570       O  0.80764733  0.61806559  0.69343183    -0.79070
O1571       O  0.78706475  0.59512677  0.63109827    -0.77270
O1572       O  0.80402306  0.66958411  0.64407057    -1.13400
O1573       O  0.77178553  0.64820628  0.58655960    -0.72600
C1574       C  0.77485277  0.67916818  0.57239818     0.98120
C1575       C  0.84064864  0.71857169  0.69954659     0.94510
Al1576     Al  0.83657004  0.64741819  0.67234021     1.55560
O1577       O  0.76970203  0.73356126  0.64425179    -0.77220
C1578       C  0.81690569  0.58492295  0.63386539     0.98680
C1579       C  0.87381451  0.69667264  0.63611823     0.93560
O1580       O  0.84727850  0.70671351  0.61742546    -0.82540
O1581       O  0.92086133  0.80254686  0.89170319    -0.82000
C1582       C  0.98782032  0.87468886  0.80841586     0.97350
O1583       O  0.95882972  0.88308934  0.81092586    -0.71120
O1584       O  0.92780908  0.81930859  0.80469943    -0.74710
Al1585     Al  0.93069700  0.85755395  0.83456980     1.48980
C1586       C  0.92280883  0.78477033  0.80934918     0.92610
O1587       O  0.99518851  0.76710744  0.86341051    -0.80930
O1588       O  0.99965032  0.85702390  0.91743237    -0.74490
Al1589     Al  0.95794143  0.78804797  0.87649338     1.90120
O1590       O  0.52933026  0.81373066  0.87991309    -0.73560
O1591       O  0.98466815  0.90859053  0.87154801    -0.73410
O1592       O  0.50813155  0.86041147  0.83191140    -0.79070
O1593       O  0.93062781  0.89975467  0.86183333    -0.77270
O1594       O  0.96359002  0.83441509  0.86188858    -1.13400
O1595       O  0.89460774  0.83474985  0.85034485    -0.72600
C1596       C  0.89408882  0.81308973  0.87380857     0.98120
C1597       C  0.52447319  0.77974962  0.87116499     0.94510
Al1598     Al  0.00234500  0.85808698  0.87424456     1.55560
O1599       O  0.93061946  0.76995244  0.83692321    -0.77220
C1600       C  0.95574661  0.92120018  0.86974457     0.98680
C1601       C  0.99425272  0.82778925  0.93278846     0.93560
O1602       O  0.98302540  0.79750833  0.91883154    -0.82540
O1603       O  0.59844318  0.80139385  0.61187594    -0.82000
C1604       C  0.53107404  0.87709081  0.68977561     0.97350
O1605       O  0.56015544  0.88618161  0.68712503    -0.71120
O1606       O  0.59270368  0.82337782  0.69801055    -0.74710
Al1607     Al  0.58904562  0.85944112  0.66534573     1.48980
C1608       C  0.59948954  0.78917346  0.69535944     0.92610
O1609       O  0.52461294  0.76802987  0.64328688    -0.80930
O1610       O  0.52208495  0.85407328  0.58249891    -0.74490
Al1611     Al  0.56176041  0.78754782  0.62833936     1.90120
O1612       O  0.99068412  0.81282140  0.62143268    -0.73560
O1613       O  0.53562866  0.90825653  0.62514120    -0.73410
O1614       O  0.51087636  0.86217298  0.66670602    -0.79070
O1615       O  0.58933090  0.89900597  0.63511090    -0.77270
O1616       O  0.55624911  0.83460848  0.63966533    -1.13400
O1617       O  0.62508765  0.83593555  0.65090389    -0.72600
C1618       C  0.62539046  0.81314411  0.62867486     0.98120
C1619       C  0.49538045  0.77996902  0.63361152     0.94510
Al1620     Al  0.51779454  0.85759312  0.62497622     1.55560
O1621       O  0.58985318  0.77241067  0.66900502    -0.77220
C1622       C  0.56478006  0.92058725  0.62658086     0.98680
C1623       C  0.52643352  0.82357221  0.56912788     0.93560
O1624       O  0.53616251  0.79377714  0.58516766    -0.82540
O1625       O  0.67145560  0.30158263  0.89197262    -0.82000
C1626       C  0.74655657  0.38181984  0.81976697     0.97350
O1627       O  0.71698887  0.39061698  0.82057383    -0.71120
O1628       O  0.68677726  0.32670100  0.80839401    -0.74710
Al1629     Al  0.68592826  0.36187317  0.83972653     1.48980
C1630       C  0.67947587  0.29243904  0.81043510     0.92610
O1631       O  0.74962385  0.27226491  0.86771918    -0.80930
O1632       O  0.74707012  0.35764024  0.92566850    -0.74490
Al1633     Al  0.71070123  0.29020891  0.87917369     1.90120
O1634       O  0.78259067  0.31675103  0.89139401    -0.73560
O1635       O  0.73628362  0.41148032  0.88178837    -0.73410
O1636       O  0.76484680  0.36570933  0.84362494    -0.79070
O1637       O  0.68251740  0.40091118  0.86849856    -0.77270
O1638       O  0.71695948  0.33761768  0.86793559    -1.13400
O1639       O  0.64767977  0.33635604  0.85104537    -0.72600
C1640       C  0.64555151  0.31293933  0.87310613     0.98120
C1641       C  0.77849528  0.28368916  0.88032935     0.94510
Al1642     Al  0.75479842  0.36118991  0.88435234     1.55560
O1643       O  0.68614180  0.27532567  0.83723981    -0.77220
C1644       C  0.70671246  0.42302455  0.87843118     0.98680
C1645       C  0.74198818  0.32692604  0.93920678     0.93560
O1646       O  0.73304633  0.29696437  0.92346740    -0.82540
O1647       O  0.85030152  0.30316878  0.61808159    -0.82000
C1648       C  0.78456851  0.37966756  0.69854230     0.97350
O1649       O  0.81403191  0.38705799  0.69615476    -0.71120
O1650       O  0.84266272  0.32249987  0.70374672    -0.74710
Al1651     Al  0.84167056  0.36003199  0.67327085     1.48980
C1652       C  0.84749358  0.28802343  0.70018856     0.92610
O1653       O  0.77397842  0.27148007  0.64595130    -0.80930
O1654       O  0.77301905  0.36085796  0.59017386    -0.74490
Al1655     Al  0.81218431  0.29092367  0.63302747     1.90120
O1656       O  0.74163763  0.31895684  0.62818356    -0.73560
O1657       O  0.78992794  0.41217088  0.63500014    -0.73410
O1658       O  0.76409482  0.36535180  0.67546138    -0.79070
O1659       O  0.84366929  0.40183318  0.64538084    -0.77270
O1660       O  0.80811707  0.33768894  0.64631007    -1.13400
O1661       O  0.87745744  0.33543464  0.65832175    -0.72600
C1662       C  0.87740526  0.31259050  0.63591564     0.98120
C1663       C  0.74516906  0.28456949  0.63643446     0.94510
Al1664     Al  0.77021319  0.36243809  0.63326602     1.55560
O1665       O  0.83835374  0.27266100  0.67326386    -0.77220
C1666       C  0.81937315  0.42405339  0.63709628     0.98680
C1667       C  0.77732936  0.33130639  0.57547108     0.93560
O1668       O  0.78794488  0.30095244  0.59018438    -0.82540
O1669       O  0.98385319  0.20899185  0.92305314    -0.82000
C1670       C  0.98728825  0.12591467  0.81702184     0.97350
O1671       O  0.00809399  0.14102502  0.83961069    -0.71120
O1672       O  0.53115774  0.18941668  0.88580502    -0.74710
Al1673     Al  0.00257468  0.14566290  0.88194765     1.48980
C1674       C  0.52711849  0.22239992  0.87407172     0.92610
O1675       O  0.93422988  0.23294455  0.83820735    -0.80930
O1676       O  0.89529767  0.16850477  0.85835306    -0.74490
Al1677     Al  0.95991238  0.21717823  0.87932203     1.90120
O1678       O  0.92682520  0.18045189  0.81083867    -0.73560
O1679       O  0.93066510  0.10479549  0.87311826    -0.73410
O1680       O  0.95819980  0.11786312  0.82017096    -0.79070
O1681       O  0.98422305  0.09534391  0.88146154    -0.77270
O1682       O  0.96412281  0.16945778  0.86826528    -1.13400
O1683       O  0.49959237  0.14912499  0.92486320    -0.72600
C1684       C  0.99448561  0.17908107  0.93873566     0.98120
C1685       C  0.92389128  0.21559454  0.81234632     0.94510
Al1686     Al  0.93058548  0.14483843  0.84312425     1.55560
O1687       O  0.99816438  0.23521186  0.86532940    -0.77220
C1688       C  0.95516223  0.08287266  0.88009363     0.98680
C1689       C  0.89456315  0.19336907  0.87891038     0.93560
O1690       O  0.92128431  0.20753508  0.89430672    -0.82540
O1691       O  0.53787435  0.20931234  0.59138635    -0.82000
C1692       C  0.53370412  0.12606466  0.69976870     0.97350
O1693       O  0.51337245  0.14066568  0.67627227    -0.71120
O1694       O  0.49149895  0.18960331  0.62915698    -0.74710
Al1695     Al  0.51933567  0.14557735  0.63385723     1.48980
C1696       C  0.49605060  0.22314929  0.63911476     0.92610
O1697       O  0.58906822  0.23368858  0.67512051    -0.80930
O1698       O  0.62695324  0.16888958  0.65706936    -0.74490
Al1699     Al  0.56268448  0.21709712  0.63464901     1.90120
O1700       O  0.59565406  0.18194125  0.70430106    -0.73560
O1701       O  0.59067897  0.10367846  0.64520481    -0.73410
O1702       O  0.56311623  0.11957625  0.69733186    -0.79070
O1703       O  0.53677975  0.09512108  0.63509755    -0.77270
O1704       O  0.55795097  0.16947153  0.64720919    -1.13400
O1705       O  0.52281001  0.14905900  0.59061852    -0.72600
C1706       C  0.52760328  0.17937235  0.57620921     0.98120
C1707       C  0.59871294  0.21709966  0.70180786     0.94510
Al1708     Al  0.59122039  0.14535143  0.67333678     1.55560
O1709       O  0.52519668  0.23547872  0.64828881    -0.77220
C1710       C  0.56556605  0.08235253  0.63684808     0.98680
C1711       C  0.62722377  0.19327431  0.63531657     0.93560
O1712       O  0.60033768  0.20623272  0.61938181    -0.82540
C1713       C  0.53365641  0.16691150  0.99018784    -0.12470
C1714       C  0.00223854  0.17924951  0.97389572     0.04540
C1715       C  0.97911762  0.19119598  0.99139551    -0.07760
C1716       C  0.98867355  0.19227723  0.52478736    -0.08500
C1717       C  0.52023580  0.18021860  0.54108988    -0.03050
C1718       C  0.54307366  0.16708666  0.52358347     0.03760
N1719       N  0.57570386  0.15391344  0.53893484     0.66270
H1720       H  0.55123318  0.15763467  0.97663734     0.15170
H1721       H  0.97085786  0.20098069  0.53828301     0.14880
N1722       N  0.94525860  0.19915992  0.97594697     0.73980
O1723       O  0.59063876  0.13073528  0.52509803    -0.39480
O1724       O  0.59128880  0.16838189  0.56454783    -0.39420
O1725       O  0.92966899  0.17693840  0.95505009    -0.40120
O1726       O  0.92919318  0.22374908  0.98714771    -0.40190
C1727       C  0.53006146  0.10827614  0.78785946    -0.12470
C1728       C  0.99719271  0.11829754  0.78666309     0.04540
C1729       C  0.97594530  0.12530832  0.75676134    -0.07760
C1730       C  0.98868096  0.12488244  0.72927386    -0.08500
C1731       C  0.52244176  0.11763179  0.73016603    -0.03050
C1732       C  0.54339289  0.10711350  0.76044609     0.03760
N1733       N  0.57805891  0.09680602  0.76533585     0.66270
H1734       H  0.54579237  0.10196187  0.81097578     0.15170
H1735       H  0.97178145  0.13189799  0.70691733     0.14880
N1736       N  0.94200911  0.13598382  0.75382062     0.73980
O1737       O  0.59616533  0.09624281  0.79314708    -0.39480
O1738       O  0.58932868  0.08156221  0.74385896    -0.39420
O1739       O  0.93143853  0.16590024  0.73869862    -0.40120
O1740       O  0.92134709  0.11192258  0.75982353    -0.40190
C1741       C  0.65552383  0.24931735  0.61887202    -0.12470
C1742       C  0.65852912  0.21209760  0.63120551     0.04540
C1743       C  0.69076240  0.19756765  0.64342037    -0.07760
C1744       C  0.71869656  0.22167432  0.64500121    -0.08500
C1745       C  0.71527215  0.25957142  0.63390393    -0.03050
C1746       C  0.68304571  0.27281163  0.61985439     0.03760
N1747       N  0.67740969  0.31018986  0.60647674     0.66270
H1748       H  0.63123654  0.26121718  0.60914120     0.15170
H1749       H  0.74328394  0.21063728  0.65473974     0.14880
N1750       N  0.69566567  0.15857263  0.65337398     0.73980
O1751       O  0.65889384  0.33255269  0.61703979    -0.39480
O1752       O  0.68558198  0.31814861  0.58060826    -0.39420
O1753       O  0.67737399  0.13296824  0.63827325    -0.40120
O1754       O  0.72101278  0.14906353  0.67422131    -0.40190
C1755       C  0.93968262  0.30689992  0.64786337    -0.12470
C1756       C  0.90825553  0.29232615  0.63326353     0.04540
C1757       C  0.90646004  0.25514826  0.62084539    -0.07760
C1758       C  0.93527356  0.23384251  0.62355013    -0.08500
C1759       C  0.96668587  0.24791107  0.63847484    -0.03050
C1760       C  0.96881544  0.28525316  0.65074775     0.03760
N1761       N  0.49984240  0.30130599  0.66721608     0.66270
H1762       H  0.94151912  0.33483035  0.65828368     0.15170
H1763       H  0.93272650  0.20554637  0.61378983     0.14880
N1764       N  0.87540397  0.23718754  0.60717920     0.73980
O1765       O  0.50729747  0.33491556  0.66100460    -0.39480
O1766       O  0.51637779  0.28504699  0.69189634    -0.39420
O1767       O  0.86084749  0.24520817  0.57893973    -0.40120
O1768       O  0.86647933  0.20802185  0.62047814    -0.40190
C1769       C  0.89281947  0.28848036  0.74779106    -0.12470
C1770       C  0.86740227  0.26776673  0.72764395     0.04540
C1771       C  0.86149031  0.22983895  0.73506895    -0.07760
C1772       C  0.88036323  0.21395641  0.76303236    -0.08500
C1773       C  0.90530777  0.23491185  0.78359372    -0.03050
C1774       C  0.91163426  0.27259422  0.77575111     0.03760
N1775       N  0.93751831  0.29472104  0.79510746     0.66270
H1776       H  0.89798189  0.31755960  0.74189813     0.15170
H1777       H  0.87546504  0.18473820  0.76864738     0.14880
N1778       N  0.83587046  0.20753616  0.71544847     0.73980
O1779       O  0.96005170  0.30900686  0.78295567    -0.39480
O1780       O  0.93388942  0.30673604  0.82153791    -0.39420
O1781       O  0.83812396  0.19914918  0.68765877    -0.40120
O1782       O  0.81518694  0.18982002  0.72793804    -0.40190
C1783       C  0.55421961  0.28608850  0.86917744    -0.12470
C1784       C  0.55671712  0.24621230  0.87170919     0.04540
C1785       C  0.58822417  0.22969015  0.87398607    -0.07760
C1786       C  0.61619627  0.25283339  0.87572650    -0.08500
C1787       C  0.61404187  0.29249902  0.87376122    -0.03050
C1788       C  0.58250726  0.30957370  0.87001481     0.03760
N1789       N  0.57880134  0.35014589  0.86831253     0.66270
H1790       H  0.53024949  0.29908289  0.86752339     0.15170
H1791       H  0.63995454  0.23934227  0.87710703     0.14880
N1792       N  0.59223945  0.18944304  0.87289996     0.73980
O1793       O  0.55105325  0.36460876  0.85570527    -0.39480
O1794       O  0.60222016  0.37163997  0.88177629    -0.39420
O1795       O  0.57621150  0.17122855  0.84934292    -0.40120
O1796       O  0.61593370  0.17345227  0.89203812    -0.40190
C1797       C  0.80483293  0.22785994  0.86104908    -0.12470
C1798       C  0.80743368  0.25806387  0.88242088     0.04540
C1799       C  0.83736604  0.26229505  0.90573758    -0.07760
C1800       C  0.86411430  0.23816969  0.90583200    -0.08500
C1801       C  0.86262786  0.21018165  0.88267800    -0.03050
C1802       C  0.83199255  0.20427931  0.86070411     0.03760
N1803       N  0.82826603  0.17594313  0.83678302     0.66270
H1804       H  0.78194961  0.22348192  0.84342435     0.15170
H1805       H  0.88702130  0.24301328  0.92331164     0.14880
N1806       N  0.84140777  0.29065715  0.92973461     0.73980
O1807       O  0.80802009  0.14895349  0.83697044    -0.39480
O1808       O  0.83890263  0.18252264  0.81197071    -0.39420
O1809       O  0.85039763  0.28065558  0.95857929    -0.40120
O1810       O  0.84527393  0.32482980  0.92223756    -0.40190
C1811       C  0.64749220  0.23733585  0.78540121    -0.12470
C1812       C  0.65980795  0.27369126  0.78181259     0.04540
C1813       C  0.64954026  0.29276730  0.75200744    -0.07760
C1814       C  0.62871753  0.27437635  0.72649891    -0.08500
C1815       C  0.61651345  0.23787063  0.73021790    -0.03050
C1816       C  0.62538319  0.21983639  0.76047985     0.03760
N1817       N  0.61135657  0.18423562  0.76690421     0.66270
H1818       H  0.65373808  0.22288734  0.80827369     0.15170
H1819       H  0.62219386  0.28881705  0.70364007     0.14880
N1820       N  0.65926595  0.33099386  0.74711659     0.73980
O1821       O  0.62997597  0.15894031  0.78214911    -0.39480
O1822       O  0.58026129  0.18115348  0.76332953    -0.39420
O1823       O  0.67646954  0.33789549  0.72689444    -0.40120
O1824       O  0.64417959  0.35780009  0.75671788    -0.40190
C1825       C  0.78158883  0.31699527  0.98982466    -0.12470
C1826       C  0.74908826  0.32582342  0.97403356     0.04540
C1827       C  0.72622319  0.33878324  0.99149932    -0.07760
C1828       C  0.73654256  0.34124487  0.52473585    -0.08500
C1829       C  0.76892347  0.33163801  0.54053306    -0.03050
C1830       C  0.79211264  0.32063161  0.52284617     0.03760
N1831       N  0.82675275  0.31618232  0.53755702     0.66270
H1832       H  0.79934675  0.30931809  0.97599454     0.15170
H1833       H  0.71905341  0.35006970  0.53851760     0.14880
N1834       N  0.69286900  0.34971259  0.97620920     0.73980
O1835       O  0.84463156  0.29479121  0.52527043    -0.39480
O1836       O  0.84074594  0.33880120  0.55890471    -0.39420
O1837       O  0.67805598  0.33471204  0.95051634    -0.40120
O1838       O  0.67698108  0.37216152  0.98975402    -0.40190
C1839       C  0.79908247  0.37779028  0.75745689    -0.12470
C1840       C  0.77517137  0.38544995  0.72940628     0.04540
C1841       C  0.74308853  0.39675706  0.73180446    -0.07760
C1842       C  0.73531954  0.39825494  0.76186996    -0.08500
C1843       C  0.75857051  0.38807150  0.78986765    -0.03050
C1844       C  0.79136719  0.37917145  0.78753232     0.03760
N1845       N  0.81713753  0.37123038  0.81518946     0.66270
H1846       H  0.82396858  0.36982940  0.75597407     0.15170
H1847       H  0.71023392  0.40568030  0.76302000     0.14880
N1848       N  0.71824341  0.40761864  0.70429537     0.73980
O1849       O  0.83691810  0.34423214  0.81500946    -0.39480
O1850       O  0.82349774  0.39466368  0.83761422    -0.39420
O1851       O  0.70546814  0.38309369  0.68412237    -0.40120
O1852       O  0.70409223  0.43920298  0.70382808    -0.40190
C1853       C  0.56443290  0.02511556  0.60240110    -0.12470
C1854       C  0.56952172  0.04116560  0.63283605     0.04540
C1855       C  0.57538713  0.01695851  0.65973322    -0.07760
C1856       C  0.57699788  0.97804625  0.65616043    -0.08500
C1857       C  0.57041935  0.96172541  0.62621105    -0.03050
C1858       C  0.56444951  0.98520952  0.59859350     0.03760
N1859       N  0.55834779  0.96941863  0.56710369     0.66270
H1860       H  0.55957705  0.04370166  0.58172733     0.15170
H1861       H  0.58035583  0.96001068  0.67720973     0.14880
N1862       N  0.57527457  0.03051953  0.69067641     0.73980
O1863       O  0.54849076  0.99031570  0.54288125    -0.39480
O1864       O  0.56468370  0.93515666  0.56308433    -0.39420
O1865       O  0.54816234  0.04222052  0.69574811    -0.40120
O1866       O  0.59727778  0.01869999  0.71394436    -0.40190
C1867       C  0.94779512  0.02533336  0.84955082    -0.12470
C1868       C  0.94977155  0.04163864  0.87925938     0.04540
C1869       C  0.95164287  0.01808386  0.90650632    -0.07760
C1870       C  0.95220356  0.97825743  0.90282797    -0.08500
C1871       C  0.95160305  0.96230883  0.87300076    -0.03050
C1872       C  0.94953779  0.98630189  0.84628017     0.03760
N1873       N  0.95218215  0.97190347  0.81611202     0.66270
H1874       H  0.94732164  0.04332926  0.82887080     0.15170
H1875       H  0.95402956  0.95961493  0.92328458     0.14880
N1876       N  0.95360531  0.03370830  0.93764407     0.73980
O1877       O  0.93109715  0.98177131  0.79143983    -0.39480
O1878       O  0.97973691  0.95907520  0.81316921    -0.39420
O1879       O  0.94652797  0.06792311  0.94086795    -0.40120
O1880       O  0.96087397  0.01277519  0.96217260    -0.40190
C1881       C  0.98540413  0.82116193  0.51807887    -0.12470
C1882       C  0.51878238  0.82268458  0.53429255     0.04540
C1883       C  0.54386864  0.82744490  0.51707234    -0.07760
C1884       C  0.53508959  0.83065254  0.98386837    -0.08500
C1885       C  0.00178588  0.82842040  0.96761275    -0.03050
C1886       C  0.97652961  0.82405075  0.98478103     0.03760
N1887       N  0.94196180  0.82427017  0.96896915     0.66270
H1888       H  0.96618664  0.81872878  0.53150530     0.15170
H1889       H  0.55440614  0.83358160  0.97060164     0.14880
N1890       N  0.57827382  0.82848276  0.53282990     0.73980
O1891       O  0.92112794  0.80511063  0.98018598    -0.39480
O1892       O  0.93154213  0.84763318  0.94660712    -0.39420
O1893       O  0.59117695  0.79965187  0.54813881    -0.40120
O1894       O  0.59696636  0.85421421  0.52580837    -0.40190
C1895       C  0.53216557  0.87980725  0.77817676    -0.12470
C1896       C  0.99816666  0.88116060  0.77787020     0.04540
C1897       C  0.97514528  0.88442938  0.74814754    -0.07760
C1898       C  0.98671691  0.88492602  0.71989477    -0.08500
C1899       C  0.52075717  0.88257509  0.72027739    -0.03050
C1900       C  0.54367226  0.88035501  0.75002024     0.03760
N1901       N  0.57841712  0.87485218  0.75235289     0.66270
H1902       H  0.55019628  0.87703247  0.80058403     0.15170
H1903       H  0.96876115  0.88629916  0.69735146     0.14880
N1904       N  0.93996303  0.88525676  0.74584732     0.73980
O1905       O  0.59603235  0.90196432  0.74582635    -0.39480
O1906       O  0.59244656  0.84669505  0.76792504    -0.39420
O1907       O  0.92719631  0.91376922  0.75560431    -0.40120
O1908       O  0.92126528  0.86215788  0.72800013    -0.40190
C1909       C  0.84748923  0.52608959  0.65176808    -0.12470
C1910       C  0.82377463  0.54485675  0.62839633     0.04540
C1911       C  0.80258909  0.52348453  0.60453072    -0.07760
C1912       C  0.80305594  0.48372829  0.60696421    -0.08500
C1913       C  0.82465685  0.46497177  0.63212666    -0.03050
C1914       C  0.84782298  0.48645920  0.65428589     0.03760
N1915       N  0.86882901  0.46917666  0.68173188     0.66270
H1916       H  0.86348005  0.54232838  0.67037256     0.15170
H1917       H  0.78586441  0.46718198  0.58954419     0.14880
N1918       N  0.78054305  0.54167978  0.57800859     0.73980
O1919       O  0.89894334  0.47918031  0.68994644    -0.39480
O1920       O  0.85587052  0.45130560  0.70151226    -0.39420
O1921       O  0.78882751  0.57268240  0.56689421    -0.40120
O1922       O  0.75479562  0.52469184  0.56312611    -0.40190
C1923       C  0.71557532  0.78165138  0.64368437    -0.12470
C1924       C  0.71128562  0.74444393  0.63184101     0.04540
C1925       C  0.67891410  0.73233266  0.61648621    -0.07760
C1926       C  0.65253662  0.75753913  0.61275462    -0.08500
C1927       C  0.65638726  0.79398853  0.62576753    -0.03050
C1928       C  0.68856325  0.80650593  0.64103996     0.03760
N1929       N  0.69440255  0.84413069  0.65353887     0.66270
H1930       H  0.74021285  0.79165750  0.65496150     0.15170
H1931       H  0.62801308  0.74691953  0.60175428     0.14880
N1932       N  0.67147867  0.69417909  0.60588908     0.73980
O1933       O  0.71759061  0.85026456  0.67754616    -0.39480
O1934       O  0.67915904  0.87196548  0.63849530    -0.39420
O1935       O  0.67717654  0.66720642  0.62584366    -0.40120
O1936       O  0.65148897  0.68857821  0.57955610    -0.40190
C1937       C  0.93547405  0.77570256  0.63254894    -0.12470
C1938       C  0.96566899  0.75653121  0.63585687     0.04540
C1939       C  0.96551726  0.71639794  0.63895177    -0.07760
C1940       C  0.93528558  0.69694713  0.63838193    -0.08500
C1941       C  0.90515582  0.71653134  0.63414992    -0.03050
C1942       C  0.90560876  0.75646158  0.63128823     0.03760
N1943       N  0.87607835  0.77841950  0.62817504     0.66270
H1944       H  0.93474660  0.80634987  0.63053659     0.15170
H1945       H  0.93532996  0.66638805  0.64122577     0.14880
N1946       N  0.99526788  0.69479983  0.64189871     0.73980
O1947       O  0.87365182  0.80091296  0.65001816    -0.39480
O1948       O  0.85700143  0.78246444  0.60107307    -0.39420
O1949       O  0.51856284  0.69839830  0.66623305    -0.40120
O1950       O  0.99541328  0.66691123  0.62393933    -0.40190
C1951       C  0.87338834  0.74828675  0.78432873    -0.12470
C1952       C  0.90443217  0.76329131  0.78221577     0.04540
C1953       C  0.91351543  0.76529573  0.75249982    -0.07760
C1954       C  0.89043080  0.75352251  0.72529588    -0.08500
C1955       C  0.85922889  0.73893254  0.72728565    -0.03050
C1956       C  0.85046568  0.73604375  0.75712837     0.03760
N1957       N  0.81833291  0.72189928  0.76005819     0.66270
H1958       H  0.86628979  0.74815385  0.80707485     0.15170
H1959       H  0.89757004  0.75348683  0.70259736     0.14880
N1960       N  0.94620542  0.77784668  0.74974525     0.73980
O1961       O  0.81416256  0.70929184  0.78647214    -0.39480
O1962       O  0.79331502  0.72515208  0.73721083    -0.39420
O1963       O  0.97062529  0.77574392  0.77329610    -0.40120
O1964       O  0.95159249  0.78702710  0.72290685    -0.40190
C1965       C  0.67491184  0.52358946  0.86498568    -0.12470
C1966       C  0.69882874  0.54303884  0.88747440     0.04540
C1967       C  0.72187251  0.52227834  0.91051725    -0.07760
C1968       C  0.72281269  0.48264065  0.90803721    -0.08500
C1969       C  0.70094554  0.46348639  0.88352372    -0.03050
C1970       C  0.67612095  0.48419885  0.86229445     0.03760
N1971       N  0.65493739  0.46671757  0.83530872     0.66270
H1972       H  0.65761499  0.53938363  0.84692193     0.15170
H1973       H  0.74123827  0.46663345  0.92481914     0.14880
N1974       N  0.74456096  0.54104370  0.93606002     0.73980
O1975       O  0.62414350  0.47324888  0.82903296    -0.39480
O1976       O  0.66762300  0.45237903  0.81417130    -0.39420
O1977       O  0.73644581  0.57165024  0.94698501    -0.40120
O1978       O  0.77117184  0.52513820  0.95009573    -0.40190
C1979       C  0.58520162  0.77384994  0.87702772    -0.12470
C1980       C  0.55406682  0.75567496  0.87085737     0.04540
C1981       C  0.55300546  0.71582862  0.86617236    -0.07760
C1982       C  0.58289737  0.69576950  0.86797024    -0.08500
C1983       C  0.61389107  0.71438970  0.87458571    -0.03050
C1984       C  0.61459830  0.75405252  0.87899960     0.03760
N1985       N  0.64487769  0.77546208  0.88369067     0.66270
H1986       H  0.58709025  0.80424459  0.88034159     0.15170
H1987       H  0.58184872  0.66553128  0.86375984     0.14880
N1988       N  0.52221457  0.69516907  0.85953791     0.73980
O1989       O  0.65034377  0.79648541  0.86144510    -0.39480
O1990       O  0.66206972  0.77985727  0.91154413    -0.39420
O1991       O  0.00081501  0.70214590  0.83429392    -0.40120
O1992       O  0.51938850  0.66520740  0.87509995    -0.40190
C1993       C  0.80315133  0.78344809  0.86235563    -0.12470
C1994       C  0.80692368  0.74480233  0.87105167     0.04540
C1995       C  0.83938927  0.73061754  0.88265101    -0.07760
C1996       C  0.86656452  0.75512773  0.88637237    -0.08500
C1997       C  0.86310390  0.79331276  0.87680611    -0.03050
C1998       C  0.83089223  0.80789236  0.86483833     0.03760
N1999       N  0.82583429  0.84719915  0.85591497     0.66270
H2000       H  0.77845127  0.79485028  0.85402702     0.15170
H2001       H  0.89107780  0.74306228  0.89441474     0.14880
N2002       N  0.84574519  0.69104248  0.88905285     0.73980
O2003       O  0.80043374  0.85721353  0.83534722    -0.39480
O2004       O  0.84473561  0.87241341  0.87086652    -0.39420
O2005       O  0.83701057  0.66753746  0.86691346    -0.40120
O2006       O  0.86578700  0.68070665  0.91428786    -0.40190
C2007       C  0.66108205  0.76993286  0.77361916    -0.12470
C2008       C  0.65635256  0.73109641  0.77759963     0.04540
C2009       C  0.63390395  0.71103367  0.75351197    -0.07760
C2010       C  0.61626595  0.73044822  0.72663782    -0.08500
C2011       C  0.62031563  0.76948235  0.72308041    -0.03050
C2012       C  0.64421260  0.78919865  0.74626088     0.03760
N2013       N  0.65351972  0.82782425  0.74149358     0.66270
H2014       H  0.67910721  0.78512065  0.79135683     0.15170
H2015       H  0.59837477  0.71504616  0.70892722     0.14880
N2016       N  0.62727194  0.67139038  0.75654229     0.73980
O2017       O  0.66107229  0.84971755  0.76494903    -0.39480
O2018       O  0.66156923  0.83730761  0.71589394    -0.39420
O2019       O  0.61343588  0.65981745  0.77827010    -0.40120
O2020       O  0.62915607  0.64939632  0.73419946    -0.40190
C2021       C  0.72744855  0.68511477  0.98617063    -0.12470
C2022       C  0.75352450  0.68476099  0.97027300     0.04540
C2023       C  0.78671945  0.68322979  0.98803674    -0.07760
C2024       C  0.79293930  0.68129809  0.52143938    -0.08500
C2025       C  0.76680213  0.68061614  0.53732558    -0.03050
C2026       C  0.73363768  0.68252607  0.51951132     0.03760
N2027       N  0.70601760  0.68135639  0.53468627     0.66270
H2028       H  0.70203176  0.68570991  0.97244100     0.15170
H2029       H  0.81833172  0.68051438  0.53519218     0.14880
N2030       N  0.81423729  0.68441352  0.97264558     0.73980
O2031       O  0.68031726  0.70045362  0.52327706    -0.39480
O2032       O  0.70501422  0.65684492  0.55604999    -0.39420
O2033       O  0.81338029  0.70585900  0.94880615    -0.40120
O2034       O  0.84102526  0.66782402  0.98513473    -0.40190
C2035       C  0.72503677  0.62089167  0.75733126    -0.12470
C2036       C  0.74926242  0.61515864  0.78551496     0.04540
C2037       C  0.78262630  0.60945303  0.78337728    -0.07760
C2038       C  0.79088514  0.61124499  0.75336359    -0.08500
C2039       C  0.76687822  0.61895118  0.72525884    -0.03050
C2040       C  0.73348918  0.62351962  0.72761864     0.03760
N2041       N  0.70805952  0.63355323  0.70052876     0.66270
H2042       H  0.69953175  0.62612498  0.75850799     0.15170
H2043       H  0.81655674  0.60745460  0.75214468     0.14880
N2044       N  0.80838258  0.60181745  0.81120731     0.73980
O2045       O  0.68664891  0.60911894  0.68832785    -0.39480
O2046       O  0.70280780  0.66810802  0.69347657    -0.39420
O2047       O  0.80269398  0.58034733  0.83309810    -0.40120
O2048       O  0.83783947  0.61274291  0.81227088    -0.40190
loop_ 
_geom_bond_atom_site_label_1 
_geom_bond_atom_site_label_2 
_geom_bond_distance 
_geom_bond_site_symmetry_2 
_ccdc_geom_bond_type 
O1           C16   1.271       .  A
O1           Al9   1.943       .  S
C2           O12   1.271       .  A
C2            O3   1.263       .  A
C2          C500   1.490       .  S
O3           Al5   1.899       .  S
O4            C6   1.258       .  A
O4           Al5   1.901       .  S
Al5          O13   1.918       .  S
Al5          O15   1.889       .  S
Al5          O14   1.775       .  S
C6           O19   1.259       .  A
C6          C458   1.488       .  S
O7           C17   1.270       .  A
O7           Al9   1.944       .  S
O8           C21   1.267       .  A
O8          Al18   1.955       .  S
Al9          O22   1.880       .  S
Al9          O19   1.906       .  S
Al9          O14   1.771       .  S
O10          C17   1.253       .  A
O10         Al18   1.860       .  S
O11          C20   1.262       .  A
O11         Al18   1.898       .  S
O12         Al18   1.943       .  S
O13          C20   1.265       .  A
O14         Al18   1.781       .  S
O15          C16   1.264       .  A
C16         C486   1.473       .  S
C17         C472   1.476       .  S
C20         C430   1.475       .  S
C21          O22   1.256       .  A
C21         C447   1.490       .  S
O23          C38   1.269       .  A
O23         Al31   1.941       .  S
C24          O34   1.269       .  A
C24          O25   1.263       .  A
C24         C503   1.498       .  S
O25         Al27   1.903       .  S
O26          C28   1.261       .  A
O26         Al27   1.916       .  S
Al27         O35   1.924       .  S
Al27         O37   1.894       .  S
Al27         O36   1.773       .  S
C28          O41   1.259       .  A
C28         C388   1.489       .  S
O29          C39   1.267       .  A
O29         Al31   1.938       .  S
O30          C43   1.267       .  A
O30         Al40   1.950       .  S
Al31         O44   1.882       .  S
Al31         O41   1.897       .  S
Al31         O36   1.772       .  S
O32          C39   1.254       .  A
O32         Al40   1.867       .  S
O33          C42   1.262       .  A
O33         Al40   1.898       .  S
O34         Al40   1.938       .  S
O35          C42   1.266       .  A
O36         Al40   1.779       .  S
O37          C38   1.263       .  A
C38         C489   1.474       .  S
C39         C419   1.463       .  S
C42         C374   1.478       .  S
C43          O44   1.257       .  A
C43         C405   1.483       .  S
O45          C60   1.255       .  A
O45         Al53   1.873       .  S
C46          O47   1.264       .  A
C46        O1080   1.264       .  A
C46         C360   1.486       .  S
O47         Al49   1.918       .  S
O48          C50   1.255       .  A
O48         Al49   1.864       .  S
Al49         O57   1.912       .  S
Al49         O59   1.934       .  S
Al49         O58   1.783       .  S
C50          O63   1.267       .  A
C50         C416   1.462       .  S
O51        C1085   1.259       .  A
O51         Al53   1.911       .  S
O52          C65   1.262       .  A
O52         Al62   1.890       .  S
Al53         O66   1.919       .  S
Al53         O63   1.936       .  S
Al53         O58   1.777       .  S
O54          C61   1.263       .  A
O54       Al1086   1.912       .  S
O55          C64   1.264       .  A
O55         Al62   1.926       .  S
O56        C1070   1.264   1_455  A
O56       Al1086   1.893       .  S
O57          C64   1.264       .  A
O58         Al62   1.774       .  S
O59          C60   1.263       .  A
C60         C461   1.480       .  S
C61        O1075   1.259   1_455  A
C61         C444   1.498       .  S
Al62       O1078   1.912       .  S
Al62       O1080   1.893       .  S
C64         C335   1.476       .  S
C65          O66   1.266       .  A
C65         C349   1.464       .  S
O67          C82   1.254       .  A
O67         Al75   1.868       .  S
C68          O78   1.264       .  A
C68          O69   1.268       .  A
C68         C363   1.486       .  S
O69         Al71   1.935       .  S
O70          C72   1.255       .  A
O70         Al71   1.866       .  S
Al71         O79   1.898       .  S
Al71         O81   1.935       .  S
Al71         O80   1.778       .  S
C72          O85   1.270       .  A
C72         C475   1.477       .  S
O73          C83   1.260   1_455  A
O73         Al75   1.909       .  S
O74          C87   1.262       .  A
O74         Al84   1.885       .  S
Al75         O88   1.935       .  S
Al75         O85   1.945       .  S
Al75         O80   1.770       .  S
O76        C1107   1.265       .  A
O76       Al1108   1.915       .  S
O77          C86   1.264       .  A
O77         Al84   1.926       .  S
O78         Al84   1.893       .  S
O79          C86   1.259       .  A
O80         Al84   1.773       .  S
O81          C82   1.263       .  A
C82         C391   1.484       .  S
C83        O1100   1.265       .  A
C83        C1426   1.492       .  S
Al84       O1100   1.915   1_455  S
C86         C321   1.469       .  S
C87          O88   1.269       .  A
C87         C346   1.465       .  S
O89         C104   1.256       .  A
O89         Al97   1.873       .  S
C90         O100   1.264       .  A
C90          O91   1.270       .  A
C90         C307   1.493       .  S
O91         Al93   1.943       .  S
O92          C94   1.250       .  A
O92         Al93   1.855       .  S
Al93        O101   1.895       .  S
Al93        O103   1.960       .  S
Al93        O102   1.775       .  S
C94         O107   1.272       .  A
C94         C276   1.478       .  S
O95         C105   1.259       .  A
O95         Al97   1.900       .  S
O96         C109   1.262       .  A
O96        Al106   1.880       .  S
Al97        O110   1.944       .  S
Al97        O107   1.942       .  S
Al97        O102   1.768       .  S
O98         C105   1.263       .  A
O98        Al106   1.933       .  S
O99         C108   1.268       .  A
O99        Al106   1.932       .  S
O100       Al106   1.896       .  S
O101        C108   1.262       .  A
O102       Al106   1.769       .  S
O103        C104   1.268       .  A
C104        C251   1.486       .  S
C105        C262   1.492       .  S
C108        C433   1.478       .  S
C109        O110   1.272       .  A
C109        C290   1.464       .  S
O111        C126   1.253       .  A
O111       Al119   1.873       .  S
C112        O122   1.261       .  A
C112        O113   1.267       .  A
C112        C304   1.484       .  S
O113       Al115   1.933       .  S
O114        C116   1.253       .  A
O114       Al115   1.846       .  S
Al115       O123   1.902       .  S
Al115       O125   1.954       .  S
Al115       O124   1.782       .  S
C116        O129   1.266       .  A
C116        C234   1.463       .  S
O117        C127   1.259       .  A
O117       Al119   1.904       .  S
O118        C131   1.263       .  A
O118       Al128   1.889       .  S
Al119       O132   1.924       .  S
Al119       O129   1.933       .  S
Al119       O124   1.777       .  S
O120        C127   1.261       .  A
O120       Al128   1.911       .  S
O121        C130   1.266       .  A
O121       Al128   1.923       .  S
O122       Al128   1.896       .  S
O123        C130   1.264       .  A
O124       Al128   1.775       .  S
O125        C126   1.267       .  A
C126        C220   1.494       .  S
C127        C209   1.494       .  S
C130        C377   1.478       .  S
C131        O132   1.268       .  A
C131        C293   1.468       .  S
O133        C148   1.273       .  A
O133       Al141   1.942       .  S
C134        O144   1.267       .  A
C134        O135   1.266       .  A
C134        C192   1.485       .  S
O135       Al137   1.899       .  S
O136        C138   1.260       .  A
O136      Al1161   1.920       .  S
Al137       O145   1.922       .  S
Al137      O1160   1.920       .  S
Al137      O1171   1.887       .  S
Al137       O146   1.780       .  S
C138       O1175   1.257   1_455  A
C138        C248   1.497       .  S
O139        C149   1.266       .  A
O139       Al141   1.929       .  S
O140        C153   1.262       .  A
O140       Al150   1.928       .  S
Al141       O154   1.875       .  S
Al141       O151   1.911       .  S
Al141       O146   1.778       .  S
O142        C149   1.252       .  A
O142       Al150   1.843       .  S
O143        C152   1.259       .  A
O143       Al150   1.901       .  S
O144       Al150   1.934       .  S
O145        C152   1.263       .  A
O146       Al150   1.783       .  S
O147       C1172   1.265       .  A
O147      Al1161   1.887   1_655  S
C148       O1171   1.265       .  A
C148        C178   1.478       .  S
C149        C237   1.467       .  S
O151       C1162   1.257       .  A
C152        C332   1.470       .  S
C153        O154   1.256       .  A
C153        C265   1.494       .  S
O155        C170   1.270       .  A
O155       Al163   1.939       .  S
C156        O166   1.265       .  A
C156        O157   1.269       .  A
C156        C195   1.510       .  S
O157       Al159   1.904       .  S
O158        C160   1.264       .  A
O158       Al159   1.924   1_655  S
Al159       O167   1.924       .  S
Al159       O169   1.903       .  S
Al159       O168   1.778       .  S
C160        O173   1.255   1_655  A
C160       C1247   1.497       .  S
O161        C171   1.267       .  A
O161       Al163   1.935       .  S
O162        C175   1.265       .  A
O162       Al172   1.943       .  S
Al163       O176   1.863       .  S
Al163       O173   1.897       .  S
Al163       O168   1.781       .  S
O164        C171   1.252       .  A
O164       Al172   1.850       .  S
O165        C174   1.263       .  A
O165       Al172   1.917       .  S
O166       Al172   1.931       .  S
O167        C174   1.261       .  A
O168       Al172   1.785       .  S
O169        C170   1.265       .  A
C170        C181   1.476       .  S
C171        C279   1.480       .  S
C174        C318   1.482       .  S
C175        O176   1.255       .  A
C175        C206   1.491       .  S
C177        H184   1.084       .  S
C177       C1202   1.400       .  A
C177        C694   1.405       .  A
C178        C179   1.413       .  A
C178       C1201   1.400       .  A
C179        C692   1.406       .  A
C179        N186   1.436       .  S
C180        H185   1.084       .  S
C180        C691   1.406   1_554  A
C180       C1205   1.402       .  A
C181        C182   1.418       .  A
C181       C1204   1.402   1_455  A
C182        C689   1.405   1_554  A
C182        N183   1.440       .  S
N183        O187   1.263       .  A
N183        O188   1.260       .  A
N186        O189   1.262       .  A
N186        O190   1.263       .  A
C191        H198   1.083       .  S
C191        C196   1.412       .  A
C191       C1216   1.395   1_455  A
C192        C193   1.408       .  A
C192       C1215   1.395       .  A
C193        C194   1.400       .  A
C193        N200   1.432       .  S
C194        H199   1.083       .  S
C194       C1219   1.411       .  A
C195        C196   1.442       .  A
C195       C1218   1.411   1_455  A
C196        N197   1.448       .  S
N197        O201   1.263       .  A
N197        O202   1.255       .  A
N200        O203   1.262       .  A
N200        O204   1.262       .  A
C205        H212   1.083       .  S
C205        C206   1.406       .  A
C205        C210   1.393       .  A
C206        C207   1.416       .  A
C207        C208   1.416       .  A
C207        N214   1.439       .  S
C208        H213   1.082       .  S
C208        C209   1.412       .  A
C209        C210   1.414       .  A
C210        N211   1.433       .  S
N211        O215   1.262       .  A
N211        O216   1.262       .  A
N214        O217   1.263       .  A
N214        O218   1.263       .  A
C219        H226   1.085       .  S
C219        C220   1.405       .  A
C219        C224   1.413       .  A
C220        C221   1.420       .  A
C221        C222   1.396       .  A
C221        N228   1.432       .  S
C222        H227   1.085       .  S
C222        C223   1.402       .  A
C223       C1184   1.497       .  S
C223        C224   1.422       .  A
C224       N1249   1.434       .  S
N225       C1248   1.434       .  S
N225        O229   1.263   1_655  A
N225        O230   1.262   1_655  A
N228        O231   1.261       .  A
N228        O232   1.262       .  A
C233        H240   1.084       .  S
C233        C234   1.409       .  A
C233        C238   1.394       .  A
C234        C235   1.404       .  A
C235        C236   1.395       .  A
C235        N242   1.434       .  S
C236        H241   1.083       .  S
C236        C237   1.410       .  A
C237        C238   1.404       .  A
C238        N239   1.432       .  S
N239        O243   1.262       .  A
N239        O244   1.262       .  A
N242        O245   1.262       .  A
N242        O246   1.262       .  A
C247        H254   1.082       .  S
C247        C248   1.414       .  A
C247        C252   1.419       .  A
C248        C249   1.414       .  A
C249        C250   1.396       .  A
C249        N256   1.435       .  S
C250        H255   1.084       .  S
C250        C251   1.404       .  A
C251        C252   1.415       .  A
C252        N253   1.441       .  S
N253        O257   1.263       .  A
N253        O258   1.263       .  A
N256        O259   1.262       .  A
N256        O260   1.262       .  A
C261        H268   1.083       .  S
C261        C262   1.407       .  A
C261        C266   1.406       .  A
C262        C263   1.416       .  A
C263        C264   1.401       .  A
C263        N270   1.432       .  S
C264        H269   1.083       .  S
C264        C265   1.406       .  A
C265        C266   1.416       .  A
C266        N267   1.430       .  S
N267        O271   1.262       .  A
N267        O272   1.261       .  A
N270        O273   1.262       .  A
N270        O274   1.262       .  A
C275        H282   1.083       .  S
C275        C276   1.395       .  A
C275        C280   1.393       .  A
C276        C277   1.422       .  A
C277        C278   1.399       .  A
C277        N284   1.430       .  S
C278        H283   1.083       .  S
C278        C279   1.399       .  A
C279        C280   1.417       .  A
C280        N281   1.427       .  S
N281        O285   1.262       .  A
N281        O286   1.262       .  A
N284        O287   1.261       .  A
N284        O288   1.262       .  A
C289        H296   1.082       .  S
C289        C290   1.398       .  A
C289        C806   1.400       .  A
C290        C291   1.415       .  A
C291        C804   1.405       .  A
C291        N298   1.441       .  S
C292        H297   1.083       .  S
C292        C293   1.401       .  A
C292        C803   1.405   1_554  A
C293        C294   1.411       .  A
C294        C801   1.400   1_554  A
C294        N295   1.438       .  S
N295        O299   1.262       .  A
N295        O300   1.262       .  A
N298        O301   1.261       .  A
N298        O302   1.263       .  A
C303        H310   1.083       .  S
C303        C304   1.405       .  A
C303        C308   1.404       .  A
C304        C305   1.413       .  A
C305        C306   1.405       .  A
C305        N312   1.434       .  S
C306        H311   1.083       .  S
C306        C307   1.409       .  A
C307        C308   1.418       .  A
C308        N309   1.436       .  S
N309        O313   1.263       .  A
N309        O314   1.263       .  A
N312        O315   1.262       .  A
N312        O316   1.262       .  A
C317        H324   1.082       .  S
C317        C318   1.408       .  A
C317        C322   1.421   1_545  A
C318        C319   1.408       .  A
C319        C320   1.389   1_545  A
C319        N326   1.425       .  S
C320        H325   1.085       .  S
C320        C321   1.391       .  A
C321        C322   1.418       .  A
C322        N323   1.444       .  S
N323        O327   1.263       .  A
N323        O328   1.263       .  A
N326        O329   1.262       .  A
N326        O330   1.263       .  A
C331        H338   1.084       .  S
C331        C332   1.397       .  A
C331        C336   1.392   1_545  A
C332        C333   1.417       .  A
C333        C334   1.418   1_545  A
C333        N340   1.444       .  S
C334        H339   1.082       .  S
C334        C335   1.406       .  A
C335        C336   1.407       .  A
C336        N337   1.430       .  S
N337        O341   1.262       .  A
N337        O342   1.262       .  A
N340        O343   1.263       .  A
N340        O344   1.263       .  A
C345        H352   1.083       .  S
C345       C1370   1.400       .  A
C345        C862   1.403   1_554  A
C346        C347   1.410       .  A
C346       C1369   1.400   1_455  A
C347        C860   1.399   1_554  A
C347        N354   1.431       .  S
C348        H353   1.083       .  S
C348        C859   1.399       .  A
C348       C1373   1.399       .  A
C349        C350   1.413       .  A
C349       C1372   1.399       .  A
C350        C857   1.403       .  A
C350        N351   1.438       .  S
N351        O355   1.263       .  A
N351        O356   1.262       .  A
N354        O357   1.261       .  A
N354        O358   1.262       .  A
C359        H366   1.084       .  S
C359        C364   1.398       .  A
C359       C1384   1.402   1_455  A
C360        C361   1.419       .  A
C360       C1383   1.402       .  A
C361        C362   1.404       .  A
C361        N368   1.434       .  S
C362        H367   1.084       .  S
C362       C1387   1.405       .  A
C363        C364   1.415       .  A
C363       C1386   1.405   1_455  A
C364        N365   1.430       .  S
N365        O369   1.262       .  A
N365        O370   1.262       .  A
N368        O371   1.261       .  A
N368        O372   1.262       .  A
C373        H380   1.085       .  S
C373        C374   1.402       .  A
C373        C378   1.402       .  A
C374        C375   1.414       .  A
C375        C376   1.406       .  A
C375        N382   1.440       .  S
C376        H381   1.084       .  S
C376        C377   1.404       .  A
C377        C378   1.415       .  A
C378        N379   1.434       .  S
N379        O383   1.262       .  A
N379        O384   1.262       .  A
N382        O385   1.263       .  A
N382        O386   1.263       .  A
C387        H394   1.083       .  S
C387        C388   1.411       .  A
C387        C392   1.410       .  A
C388        C389   1.417       .  A
C389        C390   1.393       .  A
C389        N396   1.437       .  S
C390        H395   1.083       .  S
C390        C391   1.405       .  A
C391        C392   1.414       .  A
C392        N393   1.439       .  S
N393        O397   1.263       .  A
N393        O398   1.263       .  A
N396        O399   1.262       .  A
N396        O400   1.263       .  A
C401        H408   1.084       .  S
C401        C402   1.403       .  A
C401        C406   1.392       .  A
C402       C1107   1.492       .  S
C402        C403   1.421       .  A
C403        C404   1.413       .  A
C403        N410   1.433       .  S
C404        H409   1.084       .  S
C404        C405   1.404       .  A
C405        C406   1.414       .  A
C406        N407   1.431       .  S
N407        O411   1.262       .  A
N407        O412   1.262       .  A
N410        O414   1.262       .  A
N410       O1437   1.262       .  A
O413       N1434   1.262   1_455  A
C415        H422   1.084       .  S
C415        C416   1.402       .  A
C415        C420   1.403       .  A
C416        C417   1.413       .  A
C417        C418   1.401       .  A
C417        N424   1.445       .  S
C418        H423   1.083       .  S
C418        C419   1.402       .  A
C419        C420   1.414       .  A
C420        N421   1.443       .  S
N421        O425   1.263       .  A
N421        O426   1.263       .  A
N424        O427   1.263       .  A
N424        O428   1.263       .  A
C429        H436   1.084       .  S
C429        C430   1.402       .  A
C429        C434   1.400       .  A
C430        C431   1.414       .  A
C431        C432   1.407       .  A
C431        N438   1.441       .  S
C432        H437   1.083       .  S
C432        C433   1.404       .  A
C433        C434   1.414       .  A
C434        N435   1.434       .  S
N435        O439   1.262       .  A
N435        O440   1.262       .  A
N438        O441   1.263       .  A
N438        O442   1.263       .  A
C443        H450   1.084       .  S
C443        C444   1.403       .  A
C443        C448   1.392       .  A
C444        C445   1.423       .  A
C445        C446   1.416       .  A
C445        N452   1.433       .  S
C446        H451   1.084       .  S
C446        C447   1.405       .  A
C447        C448   1.415       .  A
C448        N449   1.430       .  S
N449        O453   1.262       .  A
N449        O454   1.262       .  A
N452        O456   1.262       .  A
N452       O1479   1.262       .  A
O455       N1476   1.262       .  A
C457        H464   1.082       .  S
C457        C458   1.411       .  A
C457        C462   1.412       .  A
C458        C459   1.416       .  A
C459        C460   1.391       .  A
C459        N466   1.436       .  S
C460        H465   1.083       .  S
C460        C461   1.403       .  A
C461        C462   1.414       .  A
C462        N463   1.439       .  S
N463        O467   1.263       .  A
N463        O468   1.263       .  A
N466        O469   1.262       .  A
N466        O470   1.263       .  A
C471        H478   1.084       .  S
C471        C472   1.396       .  A
C471        C476   1.399       .  A
C472        C473   1.420       .  A
C473        C474   1.397       .  A
C473        N480   1.433       .  S
C474        H479   1.085       .  S
C474        C475   1.397       .  A
C475        C476   1.422       .  A
C476        N477   1.437       .  S
N477        O481   1.263       .  A
N477        O482   1.261       .  A
N480        O483   1.262       .  A
N480        O484   1.262       .  A
C485        H492   1.084       .  S
C485        C486   1.399       .  A
C485       C1002   1.404       .  A
C486        C487   1.414       .  A
C487       C1000   1.406       .  A
C487        N494   1.437       .  S
C488        H493   1.083       .  S
C488        C489   1.401       .  A
C488        C999   1.406   1_554  A
C489        C490   1.414       .  A
C490        C997   1.404   1_554  A
C490        N491   1.435       .  S
N491        O495   1.263       .  A
N491        O496   1.261       .  A
N494        O497   1.262       .  A
N494        O498   1.263       .  A
C499        H506   1.083       .  S
C499        C500   1.404       .  A
C499        C504   1.402       .  A
C500        C501   1.417       .  A
C501        C502   1.410       .  A
C501        N508   1.439       .  S
C502        H507   1.082       .  S
C502        C503   1.409       .  A
C503        C504   1.415       .  A
C504        N505   1.428       .  S
N505        O509   1.262       .  A
N505        O510   1.262       .  A
N508        O511   1.263       .  A
N508        O512   1.263       .  A
O513        C528   1.271       .  A
O513       Al521   1.943       .  S
C514        O524   1.271       .  A
C514        O515   1.263       .  A
C514       C1012   1.490       .  S
O515       Al517   1.899       .  S
O516        C518   1.258       .  A
O516       Al517   1.901       .  S
Al517       O525   1.918       .  S
Al517       O527   1.889       .  S
Al517       O526   1.775       .  S
C518        O531   1.259       .  A
C518        C970   1.488       .  S
O519        C529   1.270       .  A
O519       Al521   1.944       .  S
O520        C533   1.267       .  A
O520       Al530   1.955       .  S
Al521       O534   1.880       .  S
Al521       O531   1.906       .  S
Al521       O526   1.771       .  S
O522        C529   1.253       .  A
O522       Al530   1.860       .  S
O523        C532   1.262       .  A
O523       Al530   1.898       .  S
O524       Al530   1.943       .  S
O525        C532   1.265       .  A
O526       Al530   1.781       .  S
O527        C528   1.264       .  A
C528        C998   1.473       .  S
C529        C984   1.476       .  S
C532        C942   1.475       .  S
C533        O534   1.256       .  A
C533        C959   1.490       .  S
O535        C550   1.269       .  A
O535       Al543   1.941       .  S
C536        O546   1.269       .  A
C536        O537   1.263       .  A
C536       C1015   1.498       .  S
O537       Al539   1.903       .  S
O538        C540   1.261       .  A
O538       Al539   1.916       .  S
Al539       O547   1.924       .  S
Al539       O549   1.894       .  S
Al539       O548   1.773       .  S
C540        O553   1.259       .  A
C540        C900   1.489       .  S
O541        C551   1.267       .  A
O541       Al543   1.938       .  S
O542        C555   1.267       .  A
O542       Al552   1.950       .  S
Al543       O556   1.882       .  S
Al543       O553   1.897       .  S
Al543       O548   1.772       .  S
O544        C551   1.254       .  A
O544       Al552   1.867       .  S
O545        C554   1.262       .  A
O545       Al552   1.898       .  S
O546       Al552   1.938       .  S
O547        C554   1.266       .  A
O548       Al552   1.779       .  S
O549        C550   1.263       .  A
C550       C1001   1.474       .  S
C551        C931   1.463       .  S
C554        C886   1.478       .  S
C555        O556   1.257       .  A
C555        C917   1.483       .  S
O557        C572   1.255       .  A
O557       Al565   1.873       .  S
C558       O1592   1.264       .  A
C558        O559   1.264       .  A
C558        C872   1.486       .  S
O559       Al561   1.918       .  S
O560        C562   1.255       .  A
O560       Al561   1.864       .  S
Al561       O569   1.912       .  S
Al561       O571   1.934       .  S
Al561       O570   1.783       .  S
C562        O575   1.267       .  A
C562        C928   1.462       .  S
O563       C1597   1.259       .  A
O563       Al565   1.911       .  S
O564        C577   1.262       .  A
O564       Al574   1.890       .  S
Al565       O578   1.919       .  S
Al565       O575   1.936       .  S
Al565       O570   1.777       .  S
O566        C573   1.263       .  A
O566      Al1598   1.912       .  S
O567        C576   1.264       .  A
O567       Al574   1.926       .  S
O568       C1582   1.264   1_455  A
O568      Al1598   1.893       .  S
O569        C576   1.264       .  A
O570       Al574   1.774       .  S
O571        C572   1.263       .  A
C572        C973   1.480       .  S
C573       O1587   1.259   1_455  A
C573        C956   1.498       .  S
Al574      O1590   1.912       .  S
Al574      O1592   1.893       .  S
C576        C847   1.476       .  S
C577        O578   1.266       .  A
C577        C861   1.464       .  S
O579        C594   1.254       .  A
O579       Al587   1.868       .  S
C580        O590   1.264       .  A
C580        O581   1.268       .  A
C580        C875   1.486       .  S
O581       Al583   1.935       .  S
O582        C584   1.255       .  A
O582       Al583   1.866       .  S
Al583       O591   1.898       .  S
Al583       O593   1.935       .  S
Al583       O592   1.778       .  S
C584        O597   1.270       .  A
C584        C987   1.477       .  S
O585        C595   1.260   1_455  A
O585       Al587   1.909       .  S
O586        C599   1.262       .  A
O586       Al596   1.885       .  S
Al587       O600   1.935       .  S
Al587       O597   1.945       .  S
Al587       O592   1.770       .  S
O588       C1619   1.265       .  A
O588      Al1620   1.915       .  S
O589        C598   1.264       .  A
O589       Al596   1.926       .  S
O590       Al596   1.893       .  S
O591        C598   1.259       .  A
O592       Al596   1.773       .  S
O593        C594   1.263       .  A
C594        C903   1.484       .  S
C595       O1612   1.265       .  A
C595       C1938   1.492       .  S
Al596      O1612   1.915   1_455  S
C598        C833   1.469       .  S
C599        O600   1.269       .  A
C599        C858   1.465       .  S
O601        C616   1.256       .  A
O601       Al609   1.873       .  S
C602        O612   1.264       .  A
C602        O603   1.270       .  A
C602        C819   1.493       .  S
O603       Al605   1.943       .  S
O604        C606   1.250       .  A
O604       Al605   1.855       .  S
Al605       O613   1.895       .  S
Al605       O615   1.960       .  S
Al605       O614   1.775       .  S
C606        O619   1.272       .  A
C606        C788   1.478       .  S
O607        C617   1.259       .  A
O607       Al609   1.900       .  S
O608        C621   1.262       .  A
O608       Al618   1.880       .  S
Al609       O622   1.944       .  S
Al609       O619   1.942       .  S
Al609       O614   1.768       .  S
O610        C617   1.263       .  A
O610       Al618   1.933       .  S
O611        C620   1.268       .  A
O611       Al618   1.932       .  S
O612       Al618   1.896       .  S
O613        C620   1.262       .  A
O614       Al618   1.769       .  S
O615        C616   1.268       .  A
C616        C763   1.486       .  S
C617        C774   1.492       .  S
C620        C945   1.478       .  S
C621        O622   1.272       .  A
C621        C802   1.464       .  S
O623        C638   1.253       .  A
O623       Al631   1.873       .  S
C624        O634   1.261       .  A
C624        O625   1.267       .  A
C624        C816   1.484       .  S
O625       Al627   1.933       .  S
O626        C628   1.253       .  A
O626       Al627   1.846       .  S
Al627       O635   1.902       .  S
Al627       O637   1.954       .  S
Al627       O636   1.782       .  S
C628        O641   1.266       .  A
C628        C746   1.463       .  S
O629        C639   1.259       .  A
O629       Al631   1.904       .  S
O630        C643   1.263       .  A
O630       Al640   1.889       .  S
Al631       O644   1.924       .  S
Al631       O641   1.933       .  S
Al631       O636   1.777       .  S
O632        C639   1.261       .  A
O632       Al640   1.911       .  S
O633        C642   1.266       .  A
O633       Al640   1.923       .  S
O634       Al640   1.896       .  S
O635        C642   1.264       .  A
O636       Al640   1.775       .  S
O637        C638   1.267       .  A
C638        C732   1.494       .  S
C639        C721   1.494       .  S
C642        C889   1.478       .  S
C643        O644   1.268       .  A
C643        C805   1.468       .  S
O645        C660   1.273       .  A
O645       Al653   1.942       .  S
C646        O656   1.267       .  A
C646        O647   1.266       .  A
C646        C704   1.485       .  S
O647       Al649   1.899       .  S
O648        C650   1.260       .  A
O648      Al1673   1.920       .  S
Al649      O1672   1.920       .  S
Al649       O657   1.922       .  S
Al649      O1683   1.887       .  S
Al649       O658   1.780       .  S
C650       O1687   1.257   1_455  A
C650        C760   1.497       .  S
O651        C661   1.266       .  A
O651       Al653   1.929       .  S
O652        C665   1.262       .  A
O652       Al662   1.928       .  S
Al653       O666   1.875       .  S
Al653       O663   1.911       .  S
Al653       O658   1.778       .  S
O654        C661   1.252       .  A
O654       Al662   1.843       .  S
O655        C664   1.259       .  A
O655       Al662   1.901       .  S
O656       Al662   1.934       .  S
O657        C664   1.263       .  A
O658       Al662   1.783       .  S
O659       C1684   1.265       .  A
O659      Al1673   1.887   1_655  S
C660       O1683   1.265       .  A
C660        C690   1.478       .  S
C661        C749   1.467       .  S
O663       C1674   1.257       .  A
C664        C844   1.470       .  S
C665        O666   1.256       .  A
C665        C777   1.494       .  S
O667        C682   1.270       .  A
O667       Al675   1.939       .  S
C668        O678   1.265       .  A
C668        O669   1.269       .  A
C668        C707   1.510       .  S
O669       Al671   1.904       .  S
O670        C672   1.264       .  A
O670       Al671   1.924   1_655  S
Al671       O679   1.924       .  S
Al671       O681   1.903       .  S
Al671       O680   1.778       .  S
C672        O685   1.255   1_655  A
C672       C1759   1.497       .  S
O673        C683   1.267       .  A
O673       Al675   1.935       .  S
O674        C687   1.265       .  A
O674       Al684   1.943       .  S
Al675       O688   1.863       .  S
Al675       O685   1.897       .  S
Al675       O680   1.781       .  S
O676        C683   1.252       .  A
O676       Al684   1.850       .  S
O677        C686   1.263       .  A
O677       Al684   1.917       .  S
O678       Al684   1.931       .  S
O679        C686   1.261       .  A
O680       Al684   1.785       .  S
O681        C682   1.265       .  A
C682        C693   1.476       .  S
C683        C791   1.480       .  S
C686        C830   1.482       .  S
C687        O688   1.255       .  A
C687        C718   1.491       .  S
C689        H696   1.084       .  S
C689       C1714   1.400       .  A
C690       C1713   1.400       .  A
C690        C691   1.413       .  A
C691        N698   1.436       .  S
C692        H697   1.084       .  S
C692       C1717   1.402       .  A
C693       C1716   1.402   1_455  A
C693        C694   1.418       .  A
C694        N695   1.440       .  S
N695        O699   1.263       .  A
N695        O700   1.260       .  A
N698        O701   1.262       .  A
N698        O702   1.263       .  A
C703        H710   1.083       .  S
C703       C1728   1.395   1_455  A
C703        C708   1.412       .  A
C704       C1727   1.395       .  A
C704        C705   1.408       .  A
C705        C706   1.400       .  A
C705        N712   1.432       .  S
C706        H711   1.083       .  S
C706       C1731   1.411       .  A
C707       C1730   1.411   1_455  A
C707        C708   1.442       .  A
C708        N709   1.448       .  S
N709        O713   1.263       .  A
N709        O714   1.255       .  A
N712        O715   1.262       .  A
N712        O716   1.262       .  A
C717        H724   1.083       .  S
C717        C718   1.406       .  A
C717        C722   1.393       .  A
C718        C719   1.416       .  A
C719        C720   1.416       .  A
C719        N726   1.439       .  S
C720        H725   1.082       .  S
C720        C721   1.412       .  A
C721        C722   1.414       .  A
C722        N723   1.433       .  S
N723        O727   1.262       .  A
N723        O728   1.262       .  A
N726        O729   1.263       .  A
N726        O730   1.263       .  A
C731        H738   1.085       .  S
C731        C732   1.405       .  A
C731        C736   1.413       .  A
C732        C733   1.420       .  A
C733        C734   1.396       .  A
C733        N740   1.432       .  S
C734        H739   1.085       .  S
C734        C735   1.402       .  A
C735       C1696   1.497       .  S
C735        C736   1.422       .  A
C736       N1761   1.434       .  S
N737       C1760   1.434       .  S
N737        O741   1.263   1_655  A
N737        O742   1.262   1_655  A
N740        O743   1.261       .  A
N740        O744   1.262       .  A
C745        H752   1.084       .  S
C745        C746   1.409       .  A
C745        C750   1.394       .  A
C746        C747   1.404       .  A
C747        C748   1.395       .  A
C747        N754   1.434       .  S
C748        H753   1.083       .  S
C748        C749   1.410       .  A
C749        C750   1.404       .  A
C750        N751   1.432       .  S
N751        O755   1.262       .  A
N751        O756   1.262       .  A
N754        O757   1.262       .  A
N754        O758   1.262       .  A
C759        H766   1.082       .  S
C759        C760   1.414       .  A
C759        C764   1.419       .  A
C760        C761   1.414       .  A
C761        C762   1.396       .  A
C761        N768   1.435       .  S
C762        H767   1.084       .  S
C762        C763   1.404       .  A
C763        C764   1.415       .  A
C764        N765   1.441       .  S
N765        O769   1.263       .  A
N765        O770   1.263       .  A
N768        O771   1.262       .  A
N768        O772   1.262       .  A
C773        H780   1.083       .  S
C773        C774   1.407       .  A
C773        C778   1.406       .  A
C774        C775   1.416       .  A
C775        C776   1.401       .  A
C775        N782   1.432       .  S
C776        H781   1.083       .  S
C776        C777   1.406       .  A
C777        C778   1.416       .  A
C778        N779   1.430       .  S
N779        O783   1.262       .  A
N779        O784   1.261       .  A
N782        O785   1.262       .  A
N782        O786   1.262       .  A
C787        H794   1.083       .  S
C787        C788   1.395       .  A
C787        C792   1.393       .  A
C788        C789   1.422       .  A
C789        C790   1.399       .  A
C789        N796   1.430       .  S
C790        H795   1.083       .  S
C790        C791   1.399       .  A
C791        C792   1.417       .  A
C792        N793   1.427       .  S
N793        O797   1.262       .  A
N793        O798   1.262       .  A
N796        O799   1.261       .  A
N796        O800   1.262       .  A
C801        H808   1.082       .  S
C801        C802   1.398       .  A
C802        C803   1.415       .  A
C803        N810   1.441       .  S
C804        H809   1.083       .  S
C804        C805   1.401       .  A
C805        C806   1.411       .  A
C806        N807   1.438       .  S
N807        O811   1.262       .  A
N807        O812   1.262       .  A
N810        O813   1.261       .  A
N810        O814   1.263       .  A
C815        H822   1.083       .  S
C815        C816   1.405       .  A
C815        C820   1.404       .  A
C816        C817   1.413       .  A
C817        C818   1.405       .  A
C817        N824   1.434       .  S
C818        H823   1.083       .  S
C818        C819   1.409       .  A
C819        C820   1.418       .  A
C820        N821   1.436       .  S
N821        O825   1.263       .  A
N821        O826   1.263       .  A
N824        O827   1.262       .  A
N824        O828   1.262       .  A
C829        H836   1.082       .  S
C829        C830   1.408       .  A
C829        C834   1.421   1_545  A
C830        C831   1.408       .  A
C831        C832   1.389   1_545  A
C831        N838   1.425       .  S
C832        H837   1.085       .  S
C832        C833   1.391       .  A
C833        C834   1.418       .  A
C834        N835   1.444       .  S
N835        O839   1.263       .  A
N835        O840   1.263       .  A
N838        O841   1.262       .  A
N838        O842   1.263       .  A
C843        H850   1.084       .  S
C843        C844   1.397       .  A
C843        C848   1.392   1_545  A
C844        C845   1.417       .  A
C845        C846   1.418   1_545  A
C845        N852   1.444       .  S
C846        H851   1.082       .  S
C846        C847   1.406       .  A
C847        C848   1.407       .  A
C848        N849   1.430       .  S
N849        O853   1.262       .  A
N849        O854   1.262       .  A
N852        O855   1.263       .  A
N852        O856   1.263       .  A
C857        H864   1.083       .  S
C857       C1882   1.400       .  A
C858       C1881   1.400   1_455  A
C858        C859   1.410       .  A
C859        N866   1.431       .  S
C860        H865   1.083       .  S
C860       C1885   1.399       .  A
C861       C1884   1.399       .  A
C861        C862   1.413       .  A
C862        N863   1.438       .  S
N863        O867   1.263       .  A
N863        O868   1.262       .  A
N866        O869   1.261       .  A
N866        O870   1.262       .  A
C871        H878   1.084       .  S
C871       C1896   1.402   1_455  A
C871        C876   1.398       .  A
C872       C1895   1.402       .  A
C872        C873   1.419       .  A
C873        C874   1.404       .  A
C873        N880   1.434       .  S
C874        H879   1.084       .  S
C874       C1899   1.405       .  A
C875       C1898   1.405   1_455  A
C875        C876   1.415       .  A
C876        N877   1.430       .  S
N877        O881   1.262       .  A
N877        O882   1.262       .  A
N880        O883   1.261       .  A
N880        O884   1.262       .  A
C885        H892   1.085       .  S
C885        C886   1.402       .  A
C885        C890   1.402       .  A
C886        C887   1.414       .  A
C887        C888   1.406       .  A
C887        N894   1.440       .  S
C888        H893   1.084       .  S
C888        C889   1.404       .  A
C889        C890   1.415       .  A
C890        N891   1.434       .  S
N891        O895   1.262       .  A
N891        O896   1.262       .  A
N894        O897   1.263       .  A
N894        O898   1.263       .  A
C899        H906   1.083       .  S
C899        C900   1.411       .  A
C899        C904   1.410       .  A
C900        C901   1.417       .  A
C901        C902   1.393       .  A
C901        N908   1.437       .  S
C902        H907   1.083       .  S
C902        C903   1.405       .  A
C903        C904   1.414       .  A
C904        N905   1.439       .  S
N905        O909   1.263       .  A
N905        O910   1.263       .  A
N908        O911   1.262       .  A
N908        O912   1.263       .  A
C913        H920   1.084       .  S
C913        C914   1.403       .  A
C913        C918   1.392       .  A
C914       C1619   1.492       .  S
C914        C915   1.421       .  A
C915        C916   1.413       .  A
C915        N922   1.433       .  S
C916        H921   1.084       .  S
C916        C917   1.404       .  A
C917        C918   1.414       .  A
C918        N919   1.431       .  S
N919        O923   1.262       .  A
N919        O924   1.262       .  A
N922       O1949   1.262       .  A
N922        O926   1.262       .  A
O925       N1946   1.262   1_455  A
C927        H934   1.084       .  S
C927        C928   1.402       .  A
C927        C932   1.403       .  A
C928        C929   1.413       .  A
C929        C930   1.401       .  A
C929        N936   1.445       .  S
C930        H935   1.083       .  S
C930        C931   1.402       .  A
C931        C932   1.414       .  A
C932        N933   1.443       .  S
N933        O937   1.263       .  A
N933        O938   1.263       .  A
N936        O939   1.263       .  A
N936        O940   1.263       .  A
C941        H948   1.084       .  S
C941        C942   1.402       .  A
C941        C946   1.400       .  A
C942        C943   1.414       .  A
C943        C944   1.407       .  A
C943        N950   1.441       .  S
C944        H949   1.083       .  S
C944        C945   1.404       .  A
C945        C946   1.414       .  A
C946        N947   1.434       .  S
N947        O951   1.262       .  A
N947        O952   1.262       .  A
N950        O953   1.263       .  A
N950        O954   1.263       .  A
C955        H962   1.084       .  S
C955        C956   1.403       .  A
C955        C960   1.392       .  A
C956        C957   1.423       .  A
C957        C958   1.416       .  A
C957        N964   1.433       .  S
C958        H963   1.084       .  S
C958        C959   1.405       .  A
C959        C960   1.415       .  A
C960        N961   1.430       .  S
N961        O965   1.262       .  A
N961        O966   1.262       .  A
N964       O1991   1.262       .  A
N964        O968   1.262       .  A
O967       N1988   1.262       .  A
C969        H976   1.082       .  S
C969        C970   1.411       .  A
C969        C974   1.412       .  A
C970        C971   1.416       .  A
C971        C972   1.391       .  A
C971        N978   1.436       .  S
C972        H977   1.083       .  S
C972        C973   1.403       .  A
C973        C974   1.414       .  A
C974        N975   1.439       .  S
N975        O979   1.263       .  A
N975        O980   1.263       .  A
N978        O981   1.262       .  A
N978        O982   1.263       .  A
C983        H990   1.084       .  S
C983        C984   1.396       .  A
C983        C988   1.399       .  A
C984        C985   1.420       .  A
C985        C986   1.397       .  A
C985        N992   1.433       .  S
C986        H991   1.085       .  S
C986        C987   1.397       .  A
C987        C988   1.422       .  A
C988        N989   1.437       .  S
N989        O993   1.263       .  A
N989        O994   1.261       .  A
N992        O995   1.262       .  A
N992        O996   1.262       .  A
C997       H1004   1.084       .  S
C997        C998   1.399       .  A
C998        C999   1.414       .  A
C999       N1006   1.437       .  S
C1000      H1005   1.083       .  S
C1000      C1001   1.401       .  A
C1001      C1002   1.414       .  A
C1002      N1003   1.435       .  S
N1003      O1007   1.263       .  A
N1003      O1008   1.261       .  A
N1006      O1009   1.262       .  A
N1006      O1010   1.263       .  A
C1011      H1018   1.083       .  S
C1011      C1012   1.404       .  A
C1011      C1016   1.402       .  A
C1012      C1013   1.417       .  A
C1013      C1014   1.410       .  A
C1013      N1020   1.439       .  S
C1014      H1019   1.082       .  S
C1014      C1015   1.409       .  A
C1015      C1016   1.415       .  A
C1016      N1017   1.428       .  S
N1017      O1021   1.262       .  A
N1017      O1022   1.262       .  A
N1020      O1023   1.263       .  A
N1020      O1024   1.263       .  A
O1025      C1040   1.271       .  A
O1025     Al1033   1.943       .  S
C1026      O1036   1.271       .  A
C1026      O1027   1.263       .  A
C1026      C1524   1.490       .  S
O1027     Al1029   1.899       .  S
O1028      C1030   1.258       .  A
O1028     Al1029   1.901       .  S
Al1029     O1037   1.918       .  S
Al1029     O1039   1.889       .  S
Al1029     O1038   1.775       .  S
C1030      O1043   1.259       .  A
C1030      C1482   1.488       .  S
O1031      C1041   1.270       .  A
O1031     Al1033   1.944       .  S
O1032      C1045   1.267       .  A
O1032     Al1042   1.955       .  S
Al1033     O1046   1.880       .  S
Al1033     O1043   1.906       .  S
Al1033     O1038   1.771       .  S
O1034      C1041   1.253       .  A
O1034     Al1042   1.860       .  S
O1035      C1044   1.262       .  A
O1035     Al1042   1.898       .  S
O1036     Al1042   1.943       .  S
O1037      C1044   1.265       .  A
O1038     Al1042   1.781       .  S
O1039      C1040   1.264       .  A
C1040      C1510   1.473       .  S
C1041      C1496   1.476       .  S
C1044      C1454   1.475       .  S
C1045      O1046   1.256       .  A
C1045      C1471   1.490       .  S
O1047      C1062   1.269       .  A
O1047     Al1055   1.941       .  S
C1048      O1058   1.269       .  A
C1048      O1049   1.263       .  A
C1048      C1527   1.498       .  S
O1049     Al1051   1.903       .  S
O1050      C1052   1.261       .  A
O1050     Al1051   1.916       .  S
Al1051     O1059   1.924       .  S
Al1051     O1061   1.894       .  S
Al1051     O1060   1.773       .  S
C1052      O1065   1.259       .  A
C1052      C1412   1.489       .  S
O1053      C1063   1.267       .  A
O1053     Al1055   1.938       .  S
O1054      C1067   1.267       .  A
O1054     Al1064   1.950       .  S
Al1055     O1068   1.882       .  S
Al1055     O1065   1.897       .  S
Al1055     O1060   1.772       .  S
O1056      C1063   1.254       .  A
O1056     Al1064   1.867       .  S
O1057      C1066   1.262       .  A
O1057     Al1064   1.898       .  S
O1058     Al1064   1.938       .  S
O1059      C1066   1.266       .  A
O1060     Al1064   1.779       .  S
O1061      C1062   1.263       .  A
C1062      C1513   1.474       .  S
C1063      C1443   1.463       .  S
C1066      C1398   1.478       .  S
C1067      O1068   1.257       .  A
C1067      C1429   1.483       .  S
O1069      C1084   1.255       .  A
O1069     Al1077   1.873       .  S
C1070      O1071   1.264       .  A
C1070      C1384   1.486       .  S
O1071     Al1073   1.918       .  S
O1072      C1074   1.255       .  A
O1072     Al1073   1.864       .  S
Al1073     O1081   1.912       .  S
Al1073     O1083   1.934       .  S
Al1073     O1082   1.783       .  S
C1074      O1087   1.267       .  A
C1074      C1440   1.462       .  S
O1075     Al1077   1.911       .  S
O1076      C1089   1.262       .  A
O1076     Al1086   1.890   1_655  S
Al1077     O1090   1.919       .  S
Al1077     O1087   1.936       .  S
Al1077     O1082   1.777       .  S
O1078      C1085   1.263       .  A
O1079      C1088   1.264       .  A
O1079     Al1086   1.926   1_655  S
O1081      C1088   1.264       .  A
O1082     Al1086   1.774   1_655  S
O1083      C1084   1.263       .  A
C1084      C1485   1.480       .  S
C1085      C1468   1.498       .  S
C1088      C1359   1.476       .  S
C1089      O1090   1.266       .  A
C1089      C1373   1.464   1_655  S
O1091      C1106   1.254       .  A
O1091     Al1099   1.868       .  S
C1092      O1102   1.264       .  A
C1092      O1093   1.268       .  A
C1092      C1387   1.486       .  S
O1093     Al1095   1.935       .  S
O1094      C1096   1.255       .  A
O1094     Al1095   1.866       .  S
Al1095     O1103   1.898       .  S
Al1095     O1105   1.935       .  S
Al1095     O1104   1.778       .  S
C1096      O1109   1.270       .  A
C1096      C1499   1.477       .  S
O1097      C1107   1.260       .  A
O1097     Al1099   1.909       .  S
O1098      C1111   1.262       .  A
O1098     Al1108   1.885       .  S
Al1099     O1112   1.935       .  S
Al1099     O1109   1.945       .  S
Al1099     O1104   1.770       .  S
O1101      C1110   1.264       .  A
O1101     Al1108   1.926       .  S
O1102     Al1108   1.893       .  S
O1103      C1110   1.259       .  A
O1104     Al1108   1.773       .  S
O1105      C1106   1.263       .  A
C1106      C1415   1.484       .  S
C1110      C1345   1.469       .  S
C1111      O1112   1.269       .  A
C1111      C1370   1.465       .  S
O1113      C1128   1.256       .  A
O1113     Al1121   1.873       .  S
C1114      O1124   1.264       .  A
C1114      O1115   1.270       .  A
C1114      C1331   1.493       .  S
O1115     Al1117   1.943       .  S
O1116      C1118   1.250       .  A
O1116     Al1117   1.855       .  S
Al1117     O1125   1.895       .  S
Al1117     O1127   1.960       .  S
Al1117     O1126   1.775       .  S
C1118      O1131   1.272       .  A
C1118      C1300   1.478       .  S
O1119      C1129   1.259       .  A
O1119     Al1121   1.900       .  S
O1120      C1133   1.262       .  A
O1120     Al1130   1.880       .  S
Al1121     O1134   1.944       .  S
Al1121     O1131   1.942       .  S
Al1121     O1126   1.768       .  S
O1122      C1129   1.263       .  A
O1122     Al1130   1.933       .  S
O1123      C1132   1.268       .  A
O1123     Al1130   1.932       .  S
O1124     Al1130   1.896       .  S
O1125      C1132   1.262       .  A
O1126     Al1130   1.769       .  S
O1127      C1128   1.268       .  A
C1128      C1275   1.486       .  S
C1129      C1286   1.492       .  S
C1132      C1457   1.478       .  S
C1133      O1134   1.272       .  A
C1133      C1314   1.464       .  S
O1135      C1150   1.253       .  A
O1135     Al1143   1.873       .  S
C1136      O1146   1.261       .  A
C1136      O1137   1.267       .  A
C1136      C1328   1.484       .  S
O1137     Al1139   1.933       .  S
O1138      C1140   1.253       .  A
O1138     Al1139   1.846       .  S
Al1139     O1147   1.902       .  S
Al1139     O1149   1.954       .  S
Al1139     O1148   1.782       .  S
C1140      O1153   1.266       .  A
C1140      C1258   1.463       .  S
O1141      C1151   1.259       .  A
O1141     Al1143   1.904       .  S
O1142      C1155   1.263       .  A
O1142     Al1152   1.889       .  S
Al1143     O1156   1.924       .  S
Al1143     O1153   1.933       .  S
Al1143     O1148   1.777       .  S
O1144      C1151   1.261       .  A
O1144     Al1152   1.911       .  S
O1145      C1154   1.266       .  A
O1145     Al1152   1.923       .  S
O1146     Al1152   1.896       .  S
O1147      C1154   1.264       .  A
O1148     Al1152   1.775       .  S
O1149      C1150   1.267       .  A
C1150      C1244   1.494       .  S
C1151      C1233   1.494       .  S
C1154      C1401   1.478       .  S
C1155      O1156   1.268       .  A
C1155      C1317   1.468       .  S
O1157      C1172   1.273       .  A
O1157     Al1165   1.942       .  S
C1158      O1168   1.267       .  A
C1158      O1159   1.266   1_655  A
C1158      C1216   1.485       .  S
O1159     Al1161   1.899       .  S
O1160      C1162   1.260       .  A
Al1161     O1169   1.922   1_455  S
Al1161     O1170   1.780   1_455  S
C1162      C1272   1.497       .  S
O1163      C1173   1.266       .  A
O1163     Al1165   1.929       .  S
O1164      C1177   1.262       .  A
O1164     Al1174   1.928       .  S
Al1165     O1178   1.875       .  S
Al1165     O1175   1.911       .  S
Al1165     O1170   1.778       .  S
O1166      C1173   1.252       .  A
O1166     Al1174   1.843       .  S
O1167      C1176   1.259       .  A
O1167     Al1174   1.901       .  S
O1168     Al1174   1.934       .  S
O1169      C1176   1.263       .  A
O1170     Al1174   1.783       .  S
C1172      C1202   1.478   1_655  S
C1173      C1261   1.467       .  S
C1176      C1356   1.470       .  S
C1177      O1178   1.256       .  A
C1177      C1289   1.494       .  S
O1179      C1194   1.270       .  A
O1179     Al1187   1.939       .  S
C1180      O1190   1.265       .  A
C1180      O1181   1.269       .  A
C1180      C1219   1.510       .  S
O1181     Al1183   1.904       .  S
O1182      C1184   1.264       .  A
O1182     Al1183   1.924       .  S
Al1183     O1191   1.924       .  S
Al1183     O1193   1.903       .  S
Al1183     O1192   1.778       .  S
C1184      O1197   1.255       .  A
O1185      C1195   1.267       .  A
O1185     Al1187   1.935       .  S
O1186      C1199   1.265       .  A
O1186     Al1196   1.943       .  S
Al1187     O1200   1.863       .  S
Al1187     O1197   1.897       .  S
Al1187     O1192   1.781       .  S
O1188      C1195   1.252       .  A
O1188     Al1196   1.850       .  S
O1189      C1198   1.263       .  A
O1189     Al1196   1.917       .  S
O1190     Al1196   1.931       .  S
O1191      C1198   1.261       .  A
O1192     Al1196   1.785       .  S
O1193      C1194   1.265       .  A
C1194      C1205   1.476       .  S
C1195      C1303   1.480       .  S
C1198      C1342   1.482       .  S
C1199      O1200   1.255       .  A
C1199      C1230   1.491       .  S
C1201      H1208   1.084       .  S
C1201      C1718   1.405       .  A
C1202      C1203   1.413   1_455  A
C1203      C1716   1.406       .  A
C1203      N1210   1.436       .  S
C1204      H1209   1.084       .  S
C1204      C1715   1.406   1_554  A
C1205      C1206   1.418       .  A
C1206      C1713   1.405   1_554  A
C1206      N1207   1.440       .  S
N1207      O1211   1.263       .  A
N1207      O1212   1.260       .  A
N1210      O1213   1.262       .  A
N1210      O1214   1.263       .  A
C1215      H1222   1.083       .  S
C1215      C1220   1.412       .  A
C1216      C1217   1.408       .  A
C1217      C1218   1.400       .  A
C1217      N1224   1.432       .  S
C1218      H1223   1.083       .  S
C1219      C1220   1.442       .  A
C1220      N1221   1.448       .  S
N1221      O1225   1.263       .  A
N1221      O1226   1.255       .  A
N1224      O1227   1.262       .  A
N1224      O1228   1.262       .  A
C1229      H1236   1.083       .  S
C1229      C1230   1.406       .  A
C1229      C1234   1.393       .  A
C1230      C1231   1.416       .  A
C1231      C1232   1.416       .  A
C1231      N1238   1.439       .  S
C1232      H1237   1.082       .  S
C1232      C1233   1.412       .  A
C1233      C1234   1.414       .  A
C1234      N1235   1.433       .  S
N1235      O1239   1.262       .  A
N1235      O1240   1.262       .  A
N1238      O1241   1.263       .  A
N1238      O1242   1.263       .  A
C1243      H1250   1.085       .  S
C1243      C1244   1.405       .  A
C1243      C1248   1.413       .  A
C1244      C1245   1.420       .  A
C1245      C1246   1.396       .  A
C1245      N1252   1.432       .  S
C1246      H1251   1.085       .  S
C1246      C1247   1.402       .  A
C1247      C1248   1.422       .  A
N1249      O1253   1.263       .  A
N1249      O1254   1.262       .  A
N1252      O1255   1.261       .  A
N1252      O1256   1.262       .  A
C1257      H1264   1.084       .  S
C1257      C1258   1.409       .  A
C1257      C1262   1.394       .  A
C1258      C1259   1.404       .  A
C1259      C1260   1.395       .  A
C1259      N1266   1.434       .  S
C1260      H1265   1.083       .  S
C1260      C1261   1.410       .  A
C1261      C1262   1.404       .  A
C1262      N1263   1.432       .  S
N1263      O1267   1.262       .  A
N1263      O1268   1.262       .  A
N1266      O1269   1.262       .  A
N1266      O1270   1.262       .  A
C1271      H1278   1.082       .  S
C1271      C1272   1.414       .  A
C1271      C1276   1.419       .  A
C1272      C1273   1.414       .  A
C1273      C1274   1.396       .  A
C1273      N1280   1.435       .  S
C1274      H1279   1.084       .  S
C1274      C1275   1.404       .  A
C1275      C1276   1.415       .  A
C1276      N1277   1.441       .  S
N1277      O1281   1.263       .  A
N1277      O1282   1.263       .  A
N1280      O1283   1.262       .  A
N1280      O1284   1.262       .  A
C1285      H1292   1.083       .  S
C1285      C1286   1.407       .  A
C1285      C1290   1.406       .  A
C1286      C1287   1.416       .  A
C1287      C1288   1.401       .  A
C1287      N1294   1.432       .  S
C1288      H1293   1.083       .  S
C1288      C1289   1.406       .  A
C1289      C1290   1.416       .  A
C1290      N1291   1.430       .  S
N1291      O1295   1.262       .  A
N1291      O1296   1.261       .  A
N1294      O1297   1.262       .  A
N1294      O1298   1.262       .  A
C1299      H1306   1.083       .  S
C1299      C1300   1.395       .  A
C1299      C1304   1.393       .  A
C1300      C1301   1.422       .  A
C1301      C1302   1.399       .  A
C1301      N1308   1.430       .  S
C1302      H1307   1.083       .  S
C1302      C1303   1.399       .  A
C1303      C1304   1.417       .  A
C1304      N1305   1.427       .  S
N1305      O1309   1.262       .  A
N1305      O1310   1.262       .  A
N1308      O1311   1.261       .  A
N1308      O1312   1.262       .  A
C1313      H1320   1.082       .  S
C1313      C1314   1.398       .  A
C1313      C1830   1.400       .  A
C1314      C1315   1.415       .  A
C1315      C1828   1.405       .  A
C1315      N1322   1.441       .  S
C1316      H1321   1.083       .  S
C1316      C1827   1.405   1_554  A
C1316      C1317   1.401       .  A
C1317      C1318   1.411       .  A
C1318      C1825   1.400   1_554  A
C1318      N1319   1.438       .  S
N1319      O1323   1.262       .  A
N1319      O1324   1.262       .  A
N1322      O1325   1.261       .  A
N1322      O1326   1.263       .  A
C1327      H1334   1.083       .  S
C1327      C1328   1.405       .  A
C1327      C1332   1.404       .  A
C1328      C1329   1.413       .  A
C1329      C1330   1.405       .  A
C1329      N1336   1.434       .  S
C1330      H1335   1.083       .  S
C1330      C1331   1.409       .  A
C1331      C1332   1.418       .  A
C1332      N1333   1.436       .  S
N1333      O1337   1.263       .  A
N1333      O1338   1.263       .  A
N1336      O1339   1.262       .  A
N1336      O1340   1.262       .  A
C1341      H1348   1.082       .  S
C1341      C1342   1.408       .  A
C1341      C1346   1.421   1_545  A
C1342      C1343   1.408       .  A
C1343      C1344   1.389   1_545  A
C1343      N1350   1.425       .  S
C1344      H1349   1.085       .  S
C1344      C1345   1.391       .  A
C1345      C1346   1.418       .  A
C1346      N1347   1.444       .  S
N1347      O1351   1.263       .  A
N1347      O1352   1.263       .  A
N1350      O1353   1.262       .  A
N1350      O1354   1.263       .  A
C1355      H1362   1.084       .  S
C1355      C1356   1.397       .  A
C1355      C1360   1.392   1_545  A
C1356      C1357   1.417       .  A
C1357      C1358   1.418   1_545  A
C1357      N1364   1.444       .  S
C1358      H1363   1.082       .  S
C1358      C1359   1.406       .  A
C1359      C1360   1.407       .  A
C1360      N1361   1.430       .  S
N1361      O1365   1.262       .  A
N1361      O1366   1.262       .  A
N1364      O1367   1.263       .  A
N1364      O1368   1.263       .  A
C1369      H1376   1.083       .  S
C1369      C1886   1.403   1_554  A
C1370      C1371   1.410       .  A
C1371      C1884   1.399   1_554  A
C1371      N1378   1.431       .  S
C1372      H1377   1.083       .  S
C1372      C1883   1.399       .  A
C1373      C1374   1.413   1_455  A
C1374      C1881   1.403       .  A
C1374      N1375   1.438       .  S
N1375      O1379   1.263       .  A
N1375      O1380   1.262       .  A
N1378      O1381   1.261       .  A
N1378      O1382   1.262       .  A
C1383      H1390   1.084       .  S
C1383      C1388   1.398       .  A
C1384      C1385   1.419       .  A
C1385      C1386   1.404       .  A
C1385      N1392   1.434       .  S
C1386      H1391   1.084       .  S
C1387      C1388   1.415       .  A
C1388      N1389   1.430       .  S
N1389      O1393   1.262       .  A
N1389      O1394   1.262       .  A
N1392      O1395   1.261       .  A
N1392      O1396   1.262       .  A
C1397      H1404   1.085       .  S
C1397      C1398   1.402       .  A
C1397      C1402   1.402       .  A
C1398      C1399   1.414       .  A
C1399      C1400   1.406       .  A
C1399      N1406   1.440       .  S
C1400      H1405   1.084       .  S
C1400      C1401   1.404       .  A
C1401      C1402   1.415       .  A
C1402      N1403   1.434       .  S
N1403      O1407   1.262       .  A
N1403      O1408   1.262       .  A
N1406      O1409   1.263       .  A
N1406      O1410   1.263       .  A
C1411      H1418   1.083       .  S
C1411      C1412   1.411       .  A
C1411      C1416   1.410       .  A
C1412      C1413   1.417       .  A
C1413      C1414   1.393       .  A
C1413      N1420   1.437       .  S
C1414      H1419   1.083       .  S
C1414      C1415   1.405       .  A
C1415      C1416   1.414       .  A
C1416      N1417   1.439       .  S
N1417      O1421   1.263       .  A
N1417      O1422   1.263       .  A
N1420      O1423   1.262       .  A
N1420      O1424   1.263       .  A
C1425      H1432   1.084       .  S
C1425      C1426   1.403       .  A
C1425      C1430   1.392       .  A
C1426      C1427   1.421       .  A
C1427      C1428   1.413       .  A
C1427      N1434   1.433       .  S
C1428      H1433   1.084       .  S
C1428      C1429   1.404       .  A
C1429      C1430   1.414       .  A
C1430      N1431   1.431       .  S
N1431      O1435   1.262       .  A
N1431      O1436   1.262       .  A
N1434      O1438   1.262       .  A
C1439      H1446   1.084       .  S
C1439      C1440   1.402       .  A
C1439      C1444   1.403       .  A
C1440      C1441   1.413       .  A
C1441      C1442   1.401       .  A
C1441      N1448   1.445       .  S
C1442      H1447   1.083       .  S
C1442      C1443   1.402       .  A
C1443      C1444   1.414       .  A
C1444      N1445   1.443       .  S
N1445      O1449   1.263       .  A
N1445      O1450   1.263       .  A
N1448      O1451   1.263       .  A
N1448      O1452   1.263       .  A
C1453      H1460   1.084       .  S
C1453      C1454   1.402       .  A
C1453      C1458   1.400       .  A
C1454      C1455   1.414       .  A
C1455      C1456   1.407       .  A
C1455      N1462   1.441       .  S
C1456      H1461   1.083       .  S
C1456      C1457   1.404       .  A
C1457      C1458   1.414       .  A
C1458      N1459   1.434       .  S
N1459      O1463   1.262       .  A
N1459      O1464   1.262       .  A
N1462      O1465   1.263       .  A
N1462      O1466   1.263       .  A
C1467      H1474   1.084       .  S
C1467      C1468   1.403       .  A
C1467      C1472   1.392       .  A
C1468      C1469   1.423       .  A
C1469      C1470   1.416       .  A
C1469      N1476   1.433       .  S
C1470      H1475   1.084       .  S
C1470      C1471   1.405       .  A
C1471      C1472   1.415       .  A
C1472      N1473   1.430       .  S
N1473      O1477   1.262       .  A
N1473      O1478   1.262       .  A
N1476      O1480   1.262       .  A
C1481      H1488   1.082       .  S
C1481      C1482   1.411       .  A
C1481      C1486   1.412       .  A
C1482      C1483   1.416       .  A
C1483      C1484   1.391       .  A
C1483      N1490   1.436       .  S
C1484      H1489   1.083       .  S
C1484      C1485   1.403       .  A
C1485      C1486   1.414       .  A
C1486      N1487   1.439       .  S
N1487      O1491   1.263       .  A
N1487      O1492   1.263       .  A
N1490      O1493   1.262       .  A
N1490      O1494   1.263       .  A
C1495      H1502   1.084       .  S
C1495      C1496   1.396       .  A
C1495      C1500   1.399       .  A
C1496      C1497   1.420       .  A
C1497      C1498   1.397       .  A
C1497      N1504   1.433       .  S
C1498      H1503   1.085       .  S
C1498      C1499   1.397       .  A
C1499      C1500   1.422       .  A
C1500      N1501   1.437       .  S
N1501      O1505   1.263       .  A
N1501      O1506   1.261       .  A
N1504      O1507   1.262       .  A
N1504      O1508   1.262       .  A
C1509      H1516   1.084       .  S
C1509      C1510   1.399       .  A
C1509      C2026   1.404       .  A
C1510      C1511   1.414       .  A
C1511      C2024   1.406       .  A
C1511      N1518   1.437       .  S
C1512      H1517   1.083       .  S
C1512      C2023   1.406   1_554  A
C1512      C1513   1.401       .  A
C1513      C1514   1.414       .  A
C1514      C2021   1.404   1_554  A
C1514      N1515   1.435       .  S
N1515      O1519   1.263       .  A
N1515      O1520   1.261       .  A
N1518      O1521   1.262       .  A
N1518      O1522   1.263       .  A
C1523      H1530   1.083       .  S
C1523      C1524   1.404       .  A
C1523      C1528   1.402       .  A
C1524      C1525   1.417       .  A
C1525      C1526   1.410       .  A
C1525      N1532   1.439       .  S
C1526      H1531   1.082       .  S
C1526      C1527   1.409       .  A
C1527      C1528   1.415       .  A
C1528      N1529   1.428       .  S
N1529      O1533   1.262       .  A
N1529      O1534   1.262       .  A
N1532      O1535   1.263       .  A
N1532      O1536   1.263       .  A
O1537      C1552   1.271       .  A
O1537     Al1545   1.943       .  S
C1538      O1548   1.271       .  A
C1538      O1539   1.263       .  A
C1538      C2036   1.490       .  S
O1539     Al1541   1.899       .  S
O1540      C1542   1.258       .  A
O1540     Al1541   1.901       .  S
Al1541     O1549   1.918       .  S
Al1541     O1551   1.889       .  S
Al1541     O1550   1.775       .  S
C1542      O1555   1.259       .  A
C1542      C1994   1.488       .  S
O1543      C1553   1.270       .  A
O1543     Al1545   1.944       .  S
O1544      C1557   1.267       .  A
O1544     Al1554   1.955       .  S
Al1545     O1558   1.880       .  S
Al1545     O1555   1.906       .  S
Al1545     O1550   1.771       .  S
O1546      C1553   1.253       .  A
O1546     Al1554   1.860       .  S
O1547      C1556   1.262       .  A
O1547     Al1554   1.898       .  S
O1548     Al1554   1.943       .  S
O1549      C1556   1.265       .  A
O1550     Al1554   1.781       .  S
O1551      C1552   1.264       .  A
C1552      C2022   1.473       .  S
C1553      C2008   1.476       .  S
C1556      C1966   1.475       .  S
C1557      O1558   1.256       .  A
C1557      C1983   1.490       .  S
O1559      C1574   1.269       .  A
O1559     Al1567   1.941       .  S
C1560      O1570   1.269       .  A
C1560      O1561   1.263       .  A
C1560      C2039   1.498       .  S
O1561     Al1563   1.903       .  S
O1562      C1564   1.261       .  A
O1562     Al1563   1.916       .  S
Al1563     O1571   1.924       .  S
Al1563     O1573   1.894       .  S
Al1563     O1572   1.773       .  S
C1564      O1577   1.259       .  A
C1564      C1924   1.489       .  S
O1565      C1575   1.267       .  A
O1565     Al1567   1.938       .  S
O1566      C1579   1.267       .  A
O1566     Al1576   1.950       .  S
Al1567     O1580   1.882       .  S
Al1567     O1577   1.897       .  S
Al1567     O1572   1.772       .  S
O1568      C1575   1.254       .  A
O1568     Al1576   1.867       .  S
O1569      C1578   1.262       .  A
O1569     Al1576   1.898       .  S
O1570     Al1576   1.938       .  S
O1571      C1578   1.266       .  A
O1572     Al1576   1.779       .  S
O1573      C1574   1.263       .  A
C1574      C2025   1.474       .  S
C1575      C1955   1.463       .  S
C1578      C1910   1.478       .  S
C1579      O1580   1.257       .  A
C1579      C1941   1.483       .  S
O1581      C1596   1.255       .  A
O1581     Al1589   1.873       .  S
C1582      O1583   1.264       .  A
C1582      C1896   1.486       .  S
O1583     Al1585   1.918       .  S
O1584      C1586   1.255       .  A
O1584     Al1585   1.864       .  S
Al1585     O1593   1.912       .  S
Al1585     O1595   1.934       .  S
Al1585     O1594   1.783       .  S
C1586      O1599   1.267       .  A
C1586      C1952   1.462       .  S
O1587     Al1589   1.911       .  S
O1588      C1601   1.262       .  A
O1588     Al1598   1.890   1_655  S
Al1589     O1602   1.919       .  S
Al1589     O1599   1.936       .  S
Al1589     O1594   1.777       .  S
O1590      C1597   1.263       .  A
O1591      C1600   1.264       .  A
O1591     Al1598   1.926   1_655  S
O1593      C1600   1.264       .  A
O1594     Al1598   1.774   1_655  S
O1595      C1596   1.263       .  A
C1596      C1997   1.480       .  S
C1597      C1980   1.498       .  S
C1600      C1871   1.476       .  S
C1601      O1602   1.266       .  A
C1601      C1885   1.464   1_655  S
O1603      C1618   1.254       .  A
O1603     Al1611   1.868       .  S
C1604      O1614   1.264       .  A
C1604      O1605   1.268       .  A
C1604      C1899   1.486       .  S
O1605     Al1607   1.935       .  S
O1606      C1608   1.255       .  A
O1606     Al1607   1.866       .  S
Al1607     O1615   1.898       .  S
Al1607     O1617   1.935       .  S
Al1607     O1616   1.778       .  S
C1608      O1621   1.270       .  A
C1608      C2011   1.477       .  S
O1609      C1619   1.260       .  A
O1609     Al1611   1.909       .  S
O1610      C1623   1.262       .  A
O1610     Al1620   1.885       .  S
Al1611     O1624   1.935       .  S
Al1611     O1621   1.945       .  S
Al1611     O1616   1.770       .  S
O1613      C1622   1.264       .  A
O1613     Al1620   1.926       .  S
O1614     Al1620   1.893       .  S
O1615      C1622   1.259       .  A
O1616     Al1620   1.773       .  S
O1617      C1618   1.263       .  A
C1618      C1927   1.484       .  S
C1622      C1857   1.469       .  S
C1623      O1624   1.269       .  A
C1623      C1882   1.465       .  S
O1625      C1640   1.256       .  A
O1625     Al1633   1.873       .  S
C1626      O1636   1.264       .  A
C1626      O1627   1.270       .  A
C1626      C1843   1.493       .  S
O1627     Al1629   1.943       .  S
O1628      C1630   1.250       .  A
O1628     Al1629   1.855       .  S
Al1629     O1637   1.895       .  S
Al1629     O1639   1.960       .  S
Al1629     O1638   1.775       .  S
C1630      O1643   1.272       .  A
C1630      C1812   1.478       .  S
O1631      C1641   1.259       .  A
O1631     Al1633   1.900       .  S
O1632      C1645   1.262       .  A
O1632     Al1642   1.880       .  S
Al1633     O1646   1.944       .  S
Al1633     O1643   1.942       .  S
Al1633     O1638   1.768       .  S
O1634      C1641   1.263       .  A
O1634     Al1642   1.933       .  S
O1635      C1644   1.268       .  A
O1635     Al1642   1.932       .  S
O1636     Al1642   1.896       .  S
O1637      C1644   1.262       .  A
O1638     Al1642   1.769       .  S
O1639      C1640   1.268       .  A
C1640      C1787   1.486       .  S
C1641      C1798   1.492       .  S
C1644      C1969   1.478       .  S
C1645      O1646   1.272       .  A
C1645      C1826   1.464       .  S
O1647      C1662   1.253       .  A
O1647     Al1655   1.873       .  S
C1648      O1658   1.261       .  A
C1648      O1649   1.267       .  A
C1648      C1840   1.484       .  S
O1649     Al1651   1.933       .  S
O1650      C1652   1.253       .  A
O1650     Al1651   1.846       .  S
Al1651     O1659   1.902       .  S
Al1651     O1661   1.954       .  S
Al1651     O1660   1.782       .  S
C1652      O1665   1.266       .  A
C1652      C1770   1.463       .  S
O1653      C1663   1.259       .  A
O1653     Al1655   1.904       .  S
O1654      C1667   1.263       .  A
O1654     Al1664   1.889       .  S
Al1655     O1668   1.924       .  S
Al1655     O1665   1.933       .  S
Al1655     O1660   1.777       .  S
O1656      C1663   1.261       .  A
O1656     Al1664   1.911       .  S
O1657      C1666   1.266       .  A
O1657     Al1664   1.923       .  S
O1658     Al1664   1.896       .  S
O1659      C1666   1.264       .  A
O1660     Al1664   1.775       .  S
O1661      C1662   1.267       .  A
C1662      C1756   1.494       .  S
C1663      C1745   1.494       .  S
C1666      C1913   1.478       .  S
C1667      O1668   1.268       .  A
C1667      C1829   1.468       .  S
O1669      C1684   1.273       .  A
O1669     Al1677   1.942       .  S
C1670      O1680   1.267       .  A
C1670      O1671   1.266   1_655  A
C1670      C1728   1.485       .  S
O1671     Al1673   1.899       .  S
O1672      C1674   1.260       .  A
Al1673     O1681   1.922   1_455  S
Al1673     O1682   1.780   1_455  S
C1674      C1784   1.497       .  S
O1675      C1685   1.266       .  A
O1675     Al1677   1.929       .  S
O1676      C1689   1.262       .  A
O1676     Al1686   1.928       .  S
Al1677     O1690   1.875       .  S
Al1677     O1687   1.911       .  S
Al1677     O1682   1.778       .  S
O1678      C1685   1.252       .  A
O1678     Al1686   1.843       .  S
O1679      C1688   1.259       .  A
O1679     Al1686   1.901       .  S
O1680     Al1686   1.934       .  S
O1681      C1688   1.263       .  A
O1682     Al1686   1.783       .  S
C1684      C1714   1.478   1_655  S
C1685      C1773   1.467       .  S
C1688      C1868   1.470       .  S
C1689      O1690   1.256       .  A
C1689      C1801   1.494       .  S
O1691      C1706   1.270       .  A
O1691     Al1699   1.939       .  S
C1692      O1702   1.265       .  A
C1692      O1693   1.269       .  A
C1692      C1731   1.510       .  S
O1693     Al1695   1.904       .  S
O1694      C1696   1.264       .  A
O1694     Al1695   1.924       .  S
Al1695     O1703   1.924       .  S
Al1695     O1705   1.903       .  S
Al1695     O1704   1.778       .  S
C1696      O1709   1.255       .  A
O1697      C1707   1.267       .  A
O1697     Al1699   1.935       .  S
O1698      C1711   1.265       .  A
O1698     Al1708   1.943       .  S
Al1699     O1712   1.863       .  S
Al1699     O1709   1.897       .  S
Al1699     O1704   1.781       .  S
O1700      C1707   1.252       .  A
O1700     Al1708   1.850       .  S
O1701      C1710   1.263       .  A
O1701     Al1708   1.917       .  S
O1702     Al1708   1.931       .  S
O1703      C1710   1.261       .  A
O1704     Al1708   1.785       .  S
O1705      C1706   1.265       .  A
C1706      C1717   1.476       .  S
C1707      C1815   1.480       .  S
C1710      C1854   1.482       .  S
C1711      O1712   1.255       .  A
C1711      C1742   1.491       .  S
C1713      H1720   1.084       .  S
C1714      C1715   1.413   1_455  A
C1715      N1722   1.436       .  S
C1716      H1721   1.084       .  S
C1717      C1718   1.418       .  A
C1718      N1719   1.440       .  S
N1719      O1723   1.263       .  A
N1719      O1724   1.260       .  A
N1722      O1725   1.262       .  A
N1722      O1726   1.263       .  A
C1727      H1734   1.083       .  S
C1727      C1732   1.412       .  A
C1728      C1729   1.408       .  A
C1729      C1730   1.400       .  A
C1729      N1736   1.432       .  S
C1730      H1735   1.083       .  S
C1731      C1732   1.442       .  A
C1732      N1733   1.448       .  S
N1733      O1737   1.263       .  A
N1733      O1738   1.255       .  A
N1736      O1739   1.262       .  A
N1736      O1740   1.262       .  A
C1741      H1748   1.083       .  S
C1741      C1742   1.406       .  A
C1741      C1746   1.393       .  A
C1742      C1743   1.416       .  A
C1743      C1744   1.416       .  A
C1743      N1750   1.439       .  S
C1744      H1749   1.082       .  S
C1744      C1745   1.412       .  A
C1745      C1746   1.414       .  A
C1746      N1747   1.433       .  S
N1747      O1751   1.262       .  A
N1747      O1752   1.262       .  A
N1750      O1753   1.263       .  A
N1750      O1754   1.263       .  A
C1755      H1762   1.085       .  S
C1755      C1756   1.405       .  A
C1755      C1760   1.413       .  A
C1756      C1757   1.420       .  A
C1757      C1758   1.396       .  A
C1757      N1764   1.432       .  S
C1758      H1763   1.085       .  S
C1758      C1759   1.402       .  A
C1759      C1760   1.422       .  A
N1761      O1765   1.263       .  A
N1761      O1766   1.262       .  A
N1764      O1767   1.261       .  A
N1764      O1768   1.262       .  A
C1769      H1776   1.084       .  S
C1769      C1770   1.409       .  A
C1769      C1774   1.394       .  A
C1770      C1771   1.404       .  A
C1771      C1772   1.395       .  A
C1771      N1778   1.434       .  S
C1772      H1777   1.083       .  S
C1772      C1773   1.410       .  A
C1773      C1774   1.404       .  A
C1774      N1775   1.432       .  S
N1775      O1779   1.262       .  A
N1775      O1780   1.262       .  A
N1778      O1781   1.262       .  A
N1778      O1782   1.262       .  A
C1783      H1790   1.082       .  S
C1783      C1784   1.414       .  A
C1783      C1788   1.419       .  A
C1784      C1785   1.414       .  A
C1785      C1786   1.396       .  A
C1785      N1792   1.435       .  S
C1786      H1791   1.084       .  S
C1786      C1787   1.404       .  A
C1787      C1788   1.415       .  A
C1788      N1789   1.441       .  S
N1789      O1793   1.263       .  A
N1789      O1794   1.263       .  A
N1792      O1795   1.262       .  A
N1792      O1796   1.262       .  A
C1797      H1804   1.083       .  S
C1797      C1798   1.407       .  A
C1797      C1802   1.406       .  A
C1798      C1799   1.416       .  A
C1799      C1800   1.401       .  A
C1799      N1806   1.432       .  S
C1800      H1805   1.083       .  S
C1800      C1801   1.406       .  A
C1801      C1802   1.416       .  A
C1802      N1803   1.430       .  S
N1803      O1807   1.262       .  A
N1803      O1808   1.261       .  A
N1806      O1809   1.262       .  A
N1806      O1810   1.262       .  A
C1811      H1818   1.083       .  S
C1811      C1812   1.395       .  A
C1811      C1816   1.393       .  A
C1812      C1813   1.422       .  A
C1813      C1814   1.399       .  A
C1813      N1820   1.430       .  S
C1814      H1819   1.083       .  S
C1814      C1815   1.399       .  A
C1815      C1816   1.417       .  A
C1816      N1817   1.427       .  S
N1817      O1821   1.262       .  A
N1817      O1822   1.262       .  A
N1820      O1823   1.261       .  A
N1820      O1824   1.262       .  A
C1825      H1832   1.082       .  S
C1825      C1826   1.398       .  A
C1826      C1827   1.415       .  A
C1827      N1834   1.441       .  S
C1828      H1833   1.083       .  S
C1828      C1829   1.401       .  A
C1829      C1830   1.411       .  A
C1830      N1831   1.438       .  S
N1831      O1835   1.262       .  A
N1831      O1836   1.262       .  A
N1834      O1837   1.261       .  A
N1834      O1838   1.263       .  A
C1839      H1846   1.083       .  S
C1839      C1840   1.405       .  A
C1839      C1844   1.404       .  A
C1840      C1841   1.413       .  A
C1841      C1842   1.405       .  A
C1841      N1848   1.434       .  S
C1842      H1847   1.083       .  S
C1842      C1843   1.409       .  A
C1843      C1844   1.418       .  A
C1844      N1845   1.436       .  S
N1845      O1849   1.263       .  A
N1845      O1850   1.263       .  A
N1848      O1851   1.262       .  A
N1848      O1852   1.262       .  A
C1853      H1860   1.082       .  S
C1853      C1854   1.408       .  A
C1853      C1858   1.421   1_545  A
C1854      C1855   1.408       .  A
C1855      C1856   1.389   1_545  A
C1855      N1862   1.425       .  S
C1856      H1861   1.085       .  S
C1856      C1857   1.391       .  A
C1857      C1858   1.418       .  A
C1858      N1859   1.444       .  S
N1859      O1863   1.263       .  A
N1859      O1864   1.263       .  A
N1862      O1865   1.262       .  A
N1862      O1866   1.263       .  A
C1867      H1874   1.084       .  S
C1867      C1868   1.397       .  A
C1867      C1872   1.392   1_545  A
C1868      C1869   1.417       .  A
C1869      C1870   1.418   1_545  A
C1869      N1876   1.444       .  S
C1870      H1875   1.082       .  S
C1870      C1871   1.406       .  A
C1871      C1872   1.407       .  A
C1872      N1873   1.430       .  S
N1873      O1877   1.262       .  A
N1873      O1878   1.262       .  A
N1876      O1879   1.263       .  A
N1876      O1880   1.263       .  A
C1881      H1888   1.083       .  S
C1882      C1883   1.410       .  A
C1883      N1890   1.431       .  S
C1884      H1889   1.083       .  S
C1885      C1886   1.413   1_455  A
C1886      N1887   1.438       .  S
N1887      O1891   1.263       .  A
N1887      O1892   1.262       .  A
N1890      O1893   1.261       .  A
N1890      O1894   1.262       .  A
C1895      H1902   1.084       .  S
C1895      C1900   1.398       .  A
C1896      C1897   1.419       .  A
C1897      C1898   1.404       .  A
C1897      N1904   1.434       .  S
C1898      H1903   1.084       .  S
C1899      C1900   1.415       .  A
C1900      N1901   1.430       .  S
N1901      O1905   1.262       .  A
N1901      O1906   1.262       .  A
N1904      O1907   1.261       .  A
N1904      O1908   1.262       .  A
C1909      H1916   1.085       .  S
C1909      C1910   1.402       .  A
C1909      C1914   1.402       .  A
C1910      C1911   1.414       .  A
C1911      C1912   1.406       .  A
C1911      N1918   1.440       .  S
C1912      H1917   1.084       .  S
C1912      C1913   1.404       .  A
C1913      C1914   1.415       .  A
C1914      N1915   1.434       .  S
N1915      O1919   1.262       .  A
N1915      O1920   1.262       .  A
N1918      O1921   1.263       .  A
N1918      O1922   1.263       .  A
C1923      H1930   1.083       .  S
C1923      C1924   1.411       .  A
C1923      C1928   1.410       .  A
C1924      C1925   1.417       .  A
C1925      C1926   1.393       .  A
C1925      N1932   1.437       .  S
C1926      H1931   1.083       .  S
C1926      C1927   1.405       .  A
C1927      C1928   1.414       .  A
C1928      N1929   1.439       .  S
N1929      O1933   1.263       .  A
N1929      O1934   1.263       .  A
N1932      O1935   1.262       .  A
N1932      O1936   1.263       .  A
C1937      H1944   1.084       .  S
C1937      C1938   1.403       .  A
C1937      C1942   1.392       .  A
C1938      C1939   1.421       .  A
C1939      C1940   1.413       .  A
C1939      N1946   1.433       .  S
C1940      H1945   1.084       .  S
C1940      C1941   1.404       .  A
C1941      C1942   1.414       .  A
C1942      N1943   1.431       .  S
N1943      O1947   1.262       .  A
N1943      O1948   1.262       .  A
N1946      O1950   1.262       .  A
C1951      H1958   1.084       .  S
C1951      C1952   1.402       .  A
C1951      C1956   1.403       .  A
C1952      C1953   1.413       .  A
C1953      C1954   1.401       .  A
C1953      N1960   1.445       .  S
C1954      H1959   1.083       .  S
C1954      C1955   1.402       .  A
C1955      C1956   1.414       .  A
C1956      N1957   1.443       .  S
N1957      O1961   1.263       .  A
N1957      O1962   1.263       .  A
N1960      O1963   1.263       .  A
N1960      O1964   1.263       .  A
C1965      H1972   1.084       .  S
C1965      C1966   1.402       .  A
C1965      C1970   1.400       .  A
C1966      C1967   1.414       .  A
C1967      C1968   1.407       .  A
C1967      N1974   1.441       .  S
C1968      H1973   1.083       .  S
C1968      C1969   1.404       .  A
C1969      C1970   1.414       .  A
C1970      N1971   1.434       .  S
N1971      O1975   1.262       .  A
N1971      O1976   1.262       .  A
N1974      O1977   1.263       .  A
N1974      O1978   1.263       .  A
C1979      H1986   1.084       .  S
C1979      C1980   1.403       .  A
C1979      C1984   1.392       .  A
C1980      C1981   1.423       .  A
C1981      C1982   1.416       .  A
C1981      N1988   1.433       .  S
C1982      H1987   1.084       .  S
C1982      C1983   1.405       .  A
C1983      C1984   1.415       .  A
C1984      N1985   1.430       .  S
N1985      O1989   1.262       .  A
N1985      O1990   1.262       .  A
N1988      O1992   1.262       .  A
C1993      H2000   1.082       .  S
C1993      C1994   1.411       .  A
C1993      C1998   1.412       .  A
C1994      C1995   1.416       .  A
C1995      C1996   1.391       .  A
C1995      N2002   1.436       .  S
C1996      H2001   1.083       .  S
C1996      C1997   1.403       .  A
C1997      C1998   1.414       .  A
C1998      N1999   1.439       .  S
N1999      O2003   1.263       .  A
N1999      O2004   1.263       .  A
N2002      O2005   1.262       .  A
N2002      O2006   1.263       .  A
C2007      H2014   1.084       .  S
C2007      C2008   1.396       .  A
C2007      C2012   1.399       .  A
C2008      C2009   1.420       .  A
C2009      C2010   1.397       .  A
C2009      N2016   1.433       .  S
C2010      H2015   1.085       .  S
C2010      C2011   1.397       .  A
C2011      C2012   1.422       .  A
C2012      N2013   1.437       .  S
N2013      O2017   1.263       .  A
N2013      O2018   1.261       .  A
N2016      O2019   1.262       .  A
N2016      O2020   1.262       .  A
C2021      H2028   1.084       .  S
C2021      C2022   1.399       .  A
C2022      C2023   1.414       .  A
C2023      N2030   1.437       .  S
C2024      H2029   1.083       .  S
C2024      C2025   1.401       .  A
C2025      C2026   1.414       .  A
C2026      N2027   1.435       .  S
N2027      O2031   1.263       .  A
N2027      O2032   1.261       .  A
N2030      O2033   1.262       .  A
N2030      O2034   1.263       .  A
C2035      H2042   1.083       .  S
C2035      C2036   1.404       .  A
C2035      C2040   1.402       .  A
C2036      C2037   1.417       .  A
C2037      C2038   1.410       .  A
C2037      N2044   1.439       .  S
C2038      H2043   1.082       .  S
C2038      C2039   1.409       .  A
C2039      C2040   1.415       .  A
C2040      N2041   1.428       .  S
N2041      O2045   1.262       .  A
N2041      O2046   1.262       .  A
N2044      O2047   1.263       .  A
N2044      O2048   1.263       .  A
