geometry optimzed in LAMMPS
_audit_creation_date              2020-12-01 
_audit_creation_method            'lammps2cif' 
_symmetry_space_group_name_H-M    'P1' 
_symmetry_Int_Tables_number       1 
_symmetry_cell_setting            triclinic 
loop_ 
_symmetry_equiv_pos_as_xyz 
  x,y,z 
_cell_length_a                    45.70237555 
_cell_length_b                    26.771812154995423 
_cell_length_c                    51.40555702751166 
_cell_angle_alpha                 90.10637398989623 
_cell_angle_beta                  90.24386314247043 
_cell_angle_gamma                 89.500118609936 
loop_ 
_atom_site_label 
_atom_site_type_symbol 
_atom_site_fract_x 
_atom_site_fract_y 
_atom_site_fract_z 
_atom_site_charge 
O1          O  0.60117194  0.31882722  0.93843329    -0.80400
O2          O  0.60696428  0.27223586  0.82273720    -0.65000
O3          O  0.63016480  0.29309831  0.89309886    -1.11700
C4          C  0.62596604  0.46520001  0.87208194     1.06500
O5          O  0.63526867  0.33195355  0.80688599    -0.78300
O6          O  0.67148771  0.37233111  0.84153934    -0.65800
Ni7        Ni  0.61158140  0.25821374  0.92059376     1.34900
C8          C  0.68321206  0.37183615  0.86389659     0.85300
O9          O  0.62119954  0.20934226  0.86143638    -0.78800
O10         O  0.62081022  0.19518141  0.90468251    -0.89100
C11         C  0.61990274  0.29303534  0.80389839     0.84800
O12         O  0.57263598  0.25447339  0.90698767    -0.67300
O13         O  0.63262885  0.45042178  0.84927242    -0.86600
C14         C  0.56135991  0.26193420  0.88470619     0.85700
C15         C  0.62218905  0.18009353  0.88114079     1.07200
H16         H  0.59349200  0.36197638  0.85613163     0.39000
O17         O  0.61396311  0.35293550  0.85726117    -1.09200
O18         O  0.66811977  0.37105833  0.88485075    -0.65900
Ni19       Ni  0.62634218  0.36433040  0.89254073     1.26300
O20         O  0.57621381  0.27633281  0.86530404    -0.66100
O21         O  0.62109613  0.43548878  0.89087035    -0.78400
C22         C  0.61964418  0.35122491  0.94569912     0.85100
O23         O  0.63630910  0.37107672  0.92892080    -0.65600
Ni24       Ni  0.63315928  0.38832210  0.83010538     1.27400
Ni25       Ni  0.61760158  0.28116949  0.85839590     1.26100
H26         H  0.65069685  0.28441408  0.89402614     0.39600
O27         O  0.60080148  0.82439129  0.94041625    -0.80400
O28         O  0.60891673  0.77119249  0.82250031    -0.65000
O29         O  0.62705976  0.79247024  0.89424818    -1.11700
C30         C  0.62526083  0.96408712  0.86855208     1.06500
O31         O  0.64356073  0.82346223  0.81058371    -0.78300
O32         O  0.67353079  0.88368501  0.84354883    -0.65800
Ni33       Ni  0.60453714  0.76273137  0.92110694     1.34900
C34         C  0.68407168  0.87354184  0.86585246     0.85300
O35         O  0.61969418  0.70871035  0.86261017    -0.78800
O36         O  0.60713185  0.69794154  0.90458718    -0.89100
C37         C  0.62560549  0.78886203  0.80515127     0.84800
O38         O  0.56679961  0.77463703  0.90642761    -0.67300
O39         O  0.62689309  0.94830615  0.84514964    -0.86600
C40         C  0.55776875  0.77584567  0.88308131     0.85700
C41         C  0.61418738  0.68097490  0.88219244     1.07200
H42         H  0.59449635  0.86148437  0.85550008     0.39000
O43         O  0.61480515  0.85148128  0.85691049    -1.09200
O44         O  0.66826947  0.86252228  0.88528543    -0.65900
Ni45       Ni  0.62675845  0.86380765  0.89199955     1.26300
O46         O  0.57488329  0.77691333  0.86359660    -0.66100
O47         O  0.62580869  0.93548439  0.88845904    -0.78400
C48         C  0.62163274  0.85386804  0.94586354     0.85100
O49         O  0.63743600  0.87168824  0.92793772    -0.65600
Ni50       Ni  0.63471399  0.88445841  0.82931003     1.27400
Ni51       Ni  0.61690264  0.78003369  0.85884043     1.26100
H52         H  0.64693673  0.78095861  0.89680217     0.39600
O53         O  0.59702691  0.17445366  0.56359341    -0.80400
O54         O  0.60645736  0.22927962  0.68075243    -0.65000
O55         O  0.62480926  0.20580384  0.60936421    -1.11700
C56         C  0.62651115  0.03529768  0.63645088     1.06500
O57         O  0.64188498  0.17872982  0.69375803    -0.78300
O58         O  0.67391616  0.12421758  0.66019629    -0.65800
Ni59       Ni  0.60200821  0.23642539  0.58236000     1.34900
C60         C  0.68299967  0.12904307  0.63706309     0.85300
O61         O  0.61668884  0.29071730  0.64055771    -0.78800
O62         O  0.60541948  0.30165341  0.59826421    -0.89100
C63         C  0.62280606  0.21219971  0.69868746     0.84800
O64         O  0.56441205  0.22764490  0.59733431    -0.67300
O65         O  0.63164654  0.05242880  0.65917030    -0.86600
C66         C  0.55568566  0.22494548  0.62065650     0.85700
C67         C  0.61166284  0.31860214  0.62084852     1.07200
H68         H  0.59372465  0.13777602  0.64974157     0.39000
O69         O  0.61377399  0.14799459  0.64745444    -1.09200
O70         O  0.66602895  0.13308209  0.61748954    -0.65900
Ni71       Ni  0.62415758  0.13425115  0.61208227     1.26300
O72         O  0.57292791  0.22194751  0.64006382    -0.66100
O73         O  0.62271126  0.06273719  0.61634149    -0.78400
C74         C  0.61740104  0.14369363  0.55801511     0.85100
O75         O  0.63329600  0.12487396  0.57587640    -0.65600
Ni76       Ni  0.63595450  0.11721543  0.67486784     1.27400
Ni77       Ni  0.61488280  0.21940844  0.64473469     1.26100
H78         H  0.64475490  0.21637023  0.60681862     0.39600
O79         O  0.61650134  0.69140165  0.55795135    -0.80400
O80         O  0.60980356  0.73011366  0.68046629    -0.65000
O81         O  0.63337339  0.70594688  0.60997529    -1.11700
C82         C  0.62325905  0.53469560  0.63179598     1.06500
O83         O  0.63594497  0.66741437  0.69691311    -0.78300
O84         O  0.67153476  0.62417307  0.66227370    -0.65800
Ni85       Ni  0.61394928  0.74381800  0.58326370     1.34900
C86         C  0.68287163  0.62225049  0.63983474     0.85300
O87         O  0.62917584  0.78913444  0.64294344    -0.78800
O88         O  0.60992305  0.80394187  0.60387897    -0.89100
C89         C  0.62267581  0.70900486  0.69948134     0.84800
O90         O  0.57641186  0.72088255  0.59321380    -0.67300
O91         O  0.63097917  0.54936481  0.65436787    -0.86600
C92         C  0.56444960  0.72839512  0.61509556     0.85700
C93         C  0.62009487  0.81912651  0.62552108     1.07200
H94         H  0.59311689  0.64277125  0.64705282     0.39000
O95         O  0.61388831  0.64875787  0.64597087    -1.09200
O96         O  0.66736720  0.62276409  0.61911574    -0.65900
Ni97       Ni  0.62626953  0.63498600  0.61095405     1.26300
O98         O  0.57962905  0.73221757  0.63601737    -0.66100
O99         O  0.61810406  0.56472685  0.61310417    -0.78400
C100        C  0.62828108  0.64851710  0.55586472     0.85100
O101        O  0.63734454  0.62362213  0.57534044    -0.65600
Ni102      Ni  0.63266032  0.61154913  0.67340577     1.27400
Ni103      Ni  0.62082141  0.71928243  0.64490022     1.26100
H104        H  0.65407894  0.71231465  0.60892785     0.39600
O105        O  0.39648903  0.17501765  0.93931649    -0.80400
O106        O  0.38491063  0.22504227  0.82184204    -0.65000
O107        O  0.36753483  0.20501641  0.89374512    -1.11700
C108        C  0.36900412  0.03277961  0.86977181     1.06500
O109        O  0.35157466  0.17024885  0.80981175    -0.78300
O110        O  0.32148784  0.11411895  0.84350398    -0.65800
Ni111      Ni  0.38989450  0.23643563  0.92038995     1.34900
C112        C  0.31102685  0.12146455  0.86602303     0.85300
O113        O  0.37400221  0.28841964  0.86164463    -0.78800
O114        O  0.38465227  0.30073961  0.90406576    -0.89100
C115        C  0.36876657  0.20572786  0.80441227     0.84800
O116        O  0.42776849  0.22915970  0.90533623    -0.67300
O117        O  0.36649021  0.04786729  0.84636079    -0.86600
C118        C  0.43656609  0.22610243  0.88202121     0.85700
C119        C  0.37835195  0.31687027  0.88130940     1.07200
H120        H  0.40022630  0.13574351  0.85536814     0.39000
O121        O  0.37985554  0.14525655  0.85682371    -1.09200
O122        O  0.32681506  0.13198494  0.88578102    -0.65900
Ni123      Ni  0.36866721  0.13363999  0.89215669     1.26300
O124        O  0.41931911  0.22130464  0.86268768    -0.66100
O125        O  0.37025863  0.06201383  0.88939219    -0.78400
C126        C  0.37706404  0.14348766  0.94554111     0.85100
O127        O  0.35963219  0.12643708  0.92843809    -0.65600
Ni128      Ni  0.35993568  0.11084963  0.82957440     1.27400
Ni129      Ni  0.37724428  0.21687806  0.85824495     1.26100
H130        H  0.34750959  0.21579103  0.89618280     0.39600
O131        O  0.39575789  0.67740477  0.93786399    -0.80400
O132        O  0.38738670  0.73025683  0.82290403    -0.65000
O133        O  0.36545587  0.70329021  0.89293588    -1.11700
C134        C  0.36899659  0.53340182  0.87012737     1.06500
O135        O  0.36402127  0.66624778  0.80475524    -0.78300
O136        O  0.32507636  0.63500716  0.84057482    -0.65800
Ni137      Ni  0.38346838  0.73803806  0.92104154     1.34900
C138        C  0.31385238  0.62842812  0.86281669     0.85300
O139        O  0.37174034  0.78890352  0.86277716    -0.78800
O140        O  0.37260503  0.80117971  0.90621009    -0.89100
C141        C  0.37753299  0.70745909  0.80307304     0.84800
O142        O  0.42206033  0.74535953  0.90751287    -0.67300
O143        O  0.35891584  0.54994515  0.84861835    -0.86600
C144        C  0.43316907  0.73956040  0.88512161     0.85700
C145        C  0.37075056  0.81719662  0.88288825     1.07200
H146        H  0.40312697  0.63839784  0.85423870     0.39000
O147        O  0.38257178  0.64633252  0.85597257    -1.09200
O148        O  0.32946332  0.62342230  0.88342863    -0.65900
Ni149      Ni  0.37108716  0.63262122  0.89117306     1.26300
O150        O  0.41837176  0.72528057  0.86551860    -0.66100
O151        O  0.37782004  0.56217756  0.88820536    -0.78400
C152        C  0.37844676  0.64290056  0.94448744     0.85100
O153        O  0.36183699  0.62314013  0.92747895    -0.65600
Ni154      Ni  0.36211557  0.61160669  0.82903876     1.27400
Ni155      Ni  0.37714627  0.71789165  0.85840314     1.26100
H156        H  0.34474885  0.71041066  0.89406097     0.39600
O157        O  0.39016614  0.31035732  0.56316379    -0.80400
O158        O  0.38229222  0.26033577  0.67981711    -0.65000
O159        O  0.36160004  0.28284058  0.60879690    -1.11700
C160        C  0.36674078  0.45434394  0.63280293     1.06500
O161        O  0.35107196  0.31778410  0.69404752    -0.78300
O162        O  0.31886565  0.37180371  0.66054285    -0.65800
Ni163      Ni  0.38191137  0.24938290  0.58149961     1.34900
C164        C  0.30737712  0.36648660  0.63819743     0.85300
O165        O  0.36833189  0.19872793  0.64038741    -0.78800
O166        O  0.37522192  0.18564012  0.59754388    -0.89100
C167        C  0.36755231  0.28007225  0.69803505     0.84800
O168        O  0.42046008  0.25031920  0.59562564    -0.67300
O169        O  0.36337474  0.43948139  0.65612207    -0.86600
C170        C  0.43039694  0.25336264  0.61862665     0.85700
C171        C  0.37061288  0.16984613  0.62060455     1.07200
H172        H  0.39699776  0.34930798  0.64663849     0.39000
O173        O  0.37647481  0.34122986  0.64553614    -1.09200
O174        O  0.32254997  0.35904453  0.61769641    -0.65900
Ni175      Ni  0.36425409  0.35399653  0.61037115     1.26300
O176        O  0.41430267  0.26260868  0.63818878    -0.66100
O177        O  0.36769966  0.42530241  0.61312444    -0.78400
C178        C  0.37127996  0.34335545  0.55692726     0.85100
O179        O  0.35440696  0.36204152  0.57408143    -0.65600
Ni180      Ni  0.35787851  0.37650639  0.67332539     1.27400
Ni181      Ni  0.37271649  0.26991471  0.64388506     1.26100
H182        H  0.34128476  0.27383316  0.60701323     0.39600
O183        O  0.39428277  0.80810564  0.56278337    -0.80400
O184        O  0.39178583  0.76229224  0.67823945    -0.65000
O185        O  0.36713910  0.78070664  0.60793901    -1.11700
C186        C  0.36779721  0.95268197  0.63236436     1.06500
O187        O  0.35531683  0.81062647  0.69095769    -0.78300
O188        O  0.32095487  0.86485695  0.65864647    -0.65800
Ni189      Ni  0.38620299  0.74663302  0.58019461     1.34900
C190        C  0.31076011  0.86041042  0.63580090     0.85300
O191        O  0.37955464  0.69723245  0.63933870    -0.78800
O192        O  0.37872055  0.68317841  0.59600563    -0.89100
C193        C  0.37577228  0.77971955  0.69630079     0.84800
O194        O  0.42536824  0.74587657  0.59341310    -0.67300
O195        O  0.36316630  0.93629199  0.65531439    -0.86600
C196        C  0.43707095  0.75712694  0.61506953     0.85700
C197        C  0.37787498  0.66822976  0.61954205     1.07200
H198        H  0.40065797  0.85190323  0.64577447     0.39000
O199        O  0.38065883  0.84083366  0.64421515    -1.09200
O200        O  0.32678626  0.85555883  0.61571436    -0.65900
Ni201      Ni  0.36857954  0.85258358  0.60917560     1.26300
O202        O  0.42201115  0.76943466  0.63489390    -0.66100
O203        O  0.37083418  0.92417949  0.61248421    -0.78400
C204        C  0.37386760  0.83755966  0.55578305     0.85100
O205        O  0.35854381  0.85989138  0.57287557    -0.65600
Ni206      Ni  0.35976575  0.87212094  0.67185125     1.27400
Ni207      Ni  0.38049037  0.76929004  0.64253660     1.26100
H208        H  0.34688084  0.77074098  0.60721021     0.39600
O209        O  0.89423046  0.05903017  0.56148748    -0.80400
O210        O  0.88364242  0.00674244  0.67723305    -0.65000
O211        O  0.86429671  0.03043456  0.60591466    -1.11700
C212        C  0.86868508  0.20121067  0.63097188     1.06500
O213        O  0.85147965  0.06339422  0.69046294    -0.78300
O214        O  0.82044639  0.11943530  0.65697227    -0.65800
Ni215      Ni  0.88489920  0.99748605  0.57866654     1.34900
C216        C  0.80970930  0.11516388  0.63427442     0.85300
O217        O  0.87057210  0.94571815  0.63683267    -0.78800
O218        O  0.87703030  0.93365979  0.59382164    -0.89100
C219        C  0.86846665  0.02672717  0.69515664     0.84800
O220        O  0.92318574  0.99598245  0.59344830    -0.67300
O221        O  0.86511924  0.18557608  0.65410682    -0.86600
C222        C  0.93285373  0.00034132  0.61648079     0.85700
C223        C  0.87246499  0.91737139  0.61676996     1.07200
H224        H  0.89884973  0.09620957  0.64474068     0.39000
O225        O  0.87838210  0.08805176  0.64315105    -1.09200
O226        O  0.82531867  0.10691182  0.61417430    -0.65900
Ni227      Ni  0.86710387  0.10149460  0.60789727     1.26300
O228        O  0.91654415  0.01036929  0.63581469    -0.66100
O229        O  0.87041126  0.17266150  0.61112266    -0.78400
C230        C  0.87535201  0.09170561  0.55481287     0.85100
O231        O  0.85810445  0.11026534  0.57163963    -0.65600
Ni232      Ni  0.85909321  0.12258725  0.67068166     1.27400
Ni233      Ni  0.87479034  0.01681873  0.64104033     1.26100
H234        H  0.84396715  0.02166044  0.60381306     0.39600
O235        O  0.89320620  0.55284011  0.56122067    -0.80400
O236        O  0.88706580  0.50819339  0.67795147    -0.65000
O237        O  0.86418905  0.52901989  0.60721091    -1.11700
C238        C  0.86829337  0.70078441  0.62888136     1.06500
O239        O  0.85769791  0.56748916  0.69361021    -0.78300
O240        O  0.82204260  0.61189775  0.65835013    -0.65800
Ni241      Ni  0.88260121  0.49316364  0.57963648     1.34900
C242        C  0.81077736  0.60791210  0.63582908     0.85300
O243        O  0.87268251  0.44576287  0.63916387    -0.78800
O244        O  0.87345061  0.43100663  0.59596408    -0.89100
C245        C  0.87405567  0.52929408  0.69687422     0.84800
O246        O  0.92142068  0.48931833  0.59308777    -0.67300
O247        O  0.86198908  0.68589978  0.65167070    -0.86600
C248        C  0.93252509  0.49888938  0.61512317     0.85700
C249        C  0.87161648  0.41640663  0.61952432     1.07200
H250        H  0.90027133  0.59706266  0.64469174     0.39000
O251        O  0.87983040  0.58849851  0.64335200    -1.09200
O252        O  0.82614552  0.60613450  0.61509134    -0.65900
Ni253      Ni  0.86794481  0.59997503  0.60793632     1.26300
O254        O  0.91761774  0.51215346  0.63480970    -0.66100
O255        O  0.87262400  0.67101151  0.60988939    -0.78400
C256        C  0.87530281  0.58707115  0.55458881     0.85100
O257        O  0.85853429  0.60704277  0.57145540    -0.65600
Ni258      Ni  0.86049949  0.62422260  0.67057403     1.27400
Ni259      Ni  0.87636546  0.51711393  0.64212247     1.26100
H260        H  0.84366173  0.52089080  0.60617054     0.39600
O261        O  0.89121046  0.42571707  0.93845891    -0.80400
O262        O  0.89231430  0.46877260  0.82135827    -0.65000
O263        O  0.86603237  0.45161498  0.89114374    -1.11700
C264        C  0.86764601  0.27921348  0.86732018     1.06500
O265        O  0.85627214  0.42049586  0.80836242    -0.78300
O266        O  0.82265851  0.36410723  0.83976507    -0.65800
Ni267      Ni  0.88265635  0.48624755  0.91958486     1.34900
C268        C  0.81120081  0.37251226  0.86184738     0.85300
O269        O  0.87847586  0.53377626  0.85958954    -0.78800
O270        O  0.87507927  0.54882990  0.90272622    -0.89100
C271        C  0.87594060  0.45231760  0.80324013     0.84800
O272        O  0.92211646  0.48841153  0.90796943    -0.67300
O273        O  0.86697644  0.29552951  0.84402354    -0.86600
C274        C  0.93530807  0.47717111  0.88707174     0.85700
C275        C  0.87577079  0.56315318  0.87906571     1.07200
H276        H  0.90134936  0.37974765  0.85529884     0.39000
O277        O  0.88118800  0.39087251  0.85579903    -1.09200
O278        O  0.82620200  0.38002695  0.88231590    -0.65900
Ni279      Ni  0.86738417  0.38010680  0.89029330     1.26300
O280        O  0.92161463  0.46295554  0.86665862    -0.66100
O281        O  0.86807796  0.30834589  0.88713260    -0.78400
C282        C  0.87256932  0.39237191  0.94394022     0.85100
O283        O  0.85643738  0.37359288  0.92626935    -0.65600
Ni284      Ni  0.86205123  0.35918272  0.82749513     1.27400
Ni285      Ni  0.88037053  0.46219919  0.85698296     1.26100
H286        H  0.84574858  0.46207931  0.89086788     0.39600
O287        O  0.89991589  0.92043572  0.93410272    -0.80400
O288        O  0.88490049  0.97146293  0.81966164    -0.65000
O289        O  0.86689122  0.94730108  0.89085200    -1.11700
C290        C  0.86775398  0.77782914  0.86559358     1.06500
O291        O  0.85042255  0.91905346  0.80670599    -0.78300
O292        O  0.81869307  0.87157164  0.84260736    -0.65800
Ni293      Ni  0.88614562  0.98118964  0.91813494     1.34900
C294        C  0.81058631  0.87285001  0.86616358     0.85300
O295        O  0.87506803  0.03318403  0.86060924    -0.78800
O296        O  0.87283498  0.04324240  0.90388602    -0.89100
C297        C  0.86833067  0.95396770  0.80195547     0.84800
O298        O  0.92362882  0.98996925  0.90238716    -0.67300
O299        O  0.85946795  0.79477976  0.84354498    -0.86600
C300        C  0.93433744  0.97974555  0.88021981     0.85700
C301        C  0.87224825  0.06087451  0.88086019     1.07200
H302        H  0.89883948  0.87992827  0.84976543     0.39000
O303        O  0.87882990  0.89002915  0.85296350    -1.09200
O304        O  0.82834612  0.87156462  0.88531534    -0.65900
Ni305      Ni  0.87054321  0.87640278  0.88875464     1.26300
O306        O  0.91892440  0.96306575  0.86145735    -0.66100
O307        O  0.87426682  0.80570910  0.88486593    -0.78400
C308        C  0.88219635  0.88732120  0.94176821     0.85100
O309        O  0.86481444  0.86719732  0.92552298    -0.65600
Ni310      Ni  0.85564781  0.85886050  0.82680893     1.27400
Ni311      Ni  0.87700162  0.96144075  0.85587675     1.26100
H312        H  0.84640952  0.95578685  0.89266887     0.39600
O313        O  0.09903203  0.06075496  0.93913709    -0.80400
O314        O  0.11143006  0.00166938  0.82324392    -0.65000
O315        O  0.12852940  0.02837063  0.89481898    -1.11700
C316        C  0.12628026  0.19879620  0.86698808     1.06500
O317        O  0.14477704  0.05535745  0.81065753    -0.78300
O318        O  0.17474083  0.11329162  0.84349685    -0.65800
Ni319      Ni  0.10663605  0.99798497  0.92192647     1.34900
C320        C  0.18454456  0.10738268  0.86640021     0.85300
O321        O  0.12306150  0.94211494  0.86452037    -0.78800
O322        O  0.11312174  0.93273989  0.90719560    -0.89100
C323        C  0.12663508  0.02115722  0.80536847     0.84800
O324        O  0.06873108  0.00165128  0.90627607    -0.67300
O325        O  0.12986786  0.18136396  0.84410756    -0.86600
C326        C  0.06010636  0.00358896  0.88280533     0.85700
C327        C  0.11936370  0.91513784  0.88476528     1.07200
H328        H  0.09561584  0.09359805  0.85427332     0.39000
O329        O  0.11601061  0.08466570  0.85643455    -1.09200
O330        O  0.16830094  0.10139239  0.88618519    -0.65900
Ni331      Ni  0.12649533  0.09973339  0.89172054     1.26300
O332        O  0.07736973  0.00821156  0.86366230    -0.66100
O333        O  0.12421085  0.17129786  0.88722985    -0.78400
C334        C  0.11871337  0.09188388  0.94538166     0.85100
O335        O  0.13522181  0.10997818  0.92799323    -0.65600
Ni336      Ni  0.13647620  0.11672805  0.82885087     1.27400
Ni337      Ni  0.11924380  0.01315283  0.85949694     1.26100
H338        H  0.14868588  0.01855701  0.89766233     0.39600
O339        O  0.10891144  0.55018772  0.94138693    -0.80400
O340        O  0.10528525  0.51269942  0.82360024    -0.65000
O341        O  0.13374014  0.52712096  0.89321362    -1.11700
C342        C  0.12916898  0.70004006  0.87280034     1.06500
O343        O  0.13931743  0.56373896  0.80974223    -0.78300
O344        O  0.17469912  0.61548709  0.84218034    -0.65800
Ni345      Ni  0.11703899  0.49104849  0.92114879     1.34900
C346        C  0.18665242  0.60964156  0.86431353     0.85300
O347        O  0.12054264  0.44548564  0.86048834    -0.78800
O348        O  0.12381367  0.42900831  0.90340364    -0.89100
C349        C  0.11973218  0.53138569  0.80497866     0.84800
O350        O  0.07729702  0.49071261  0.90964557    -0.67300
O351        O  0.13221948  0.68592878  0.84920624    -0.86600
C352        C  0.06386427  0.50203886  0.88880628     0.85700
C353        C  0.12263431  0.41516307  0.87965799     1.07200
H354        H  0.09670143  0.59969312  0.85854803     0.39000
O355        O  0.11697517  0.58915954  0.85884529    -1.09200
O356        O  0.17208693  0.60309714  0.88510338    -0.65900
Ni357      Ni  0.13092238  0.59863208  0.89356497     1.26300
O358        O  0.07764920  0.51621323  0.86867949    -0.66100
O359        O  0.12743195  0.67012816  0.89207008    -0.78400
C360        C  0.12674433  0.58478487  0.94710173     0.85100
O361        O  0.14251059  0.60429027  0.92957056    -0.65600
Ni362      Ni  0.13522078  0.62327401  0.83090339     1.27400
Ni363      Ni  0.11856252  0.51767786  0.85895354     1.26100
H364        H  0.15417756  0.51761348  0.89280406     0.39600
O365        O  0.09869455  0.42865017  0.56258772    -0.80400
O366        O  0.10391007  0.47686700  0.67921850    -0.65000
O367        O  0.12681711  0.45334297  0.60890612    -1.11700
C368        C  0.12146400  0.28220694  0.63164966     1.06500
O369        O  0.13285809  0.41744587  0.69551886    -0.78300
O370        O  0.16832956  0.36998861  0.66118002    -0.65800
Ni371      Ni  0.10858296  0.48864937  0.58095106     1.34900
C372        C  0.17939027  0.37307740  0.63859768     0.85300
O373        O  0.11911701  0.53778808  0.64029092    -0.78800
O374        O  0.11691951  0.55137575  0.59712292    -0.89100
C375        C  0.11674231  0.45603702  0.69834902     0.84800
O376        O  0.06958475  0.49150759  0.59367730    -0.67300
O377        O  0.12671338  0.29756182  0.65465087    -0.86600
C378        C  0.05851409  0.48373065  0.61581128     0.85700
C379        C  0.11953943  0.56671897  0.62051295     1.07200
H380        H  0.08996928  0.38733817  0.64633994     0.39000
O381        O  0.11050442  0.39531018  0.64524145    -1.09200
O382        O  0.16400914  0.37541935  0.61783275    -0.65900
Ni383      Ni  0.12255144  0.38238393  0.61006836     1.26300
O384        O  0.07344501  0.47249934  0.63590218    -0.66100
O385        O  0.11767643  0.31141408  0.61235890    -0.78400
C386        C  0.11656724  0.39408797  0.55649858     0.85100
O387        O  0.13257686  0.37391364  0.57391655    -0.65600
Ni388      Ni  0.12932474  0.35993173  0.67300479     1.27400
Ni389      Ni  0.11465347  0.46660682  0.64360493     1.26100
H390        H  0.14740094  0.46104579  0.60797978     0.39600
O391        O  0.09972464  0.92413191  0.56145597    -0.80400
O392        O  0.10949396  0.97522517  0.67957473    -0.65000
O393        O  0.12755191  0.95400541  0.60767624    -1.11700
C394        C  0.12487424  0.78254995  0.63274059     1.06500
O395        O  0.14405944  0.92154001  0.69108388    -0.78300
O396        O  0.17390547  0.86124402  0.65802446    -0.65800
Ni397      Ni  0.10555003  0.98538740  0.58061928     1.34900
C398        C  0.18402412  0.86974362  0.63553246     0.85300
O399        O  0.12012998  0.03808239  0.63953806    -0.78800
O400        O  0.11012416  0.04949150  0.59696772    -0.89100
C401        C  0.12551887  0.95526154  0.69705901     0.84800
O402        O  0.06760215  0.97829294  0.59531566    -0.67300
O403        O  0.12787832  0.79809130  0.65605567    -0.86600
C404        C  0.05854039  0.97542530  0.61854267     0.85700
C405        C  0.11581318  0.06611110  0.61971721     1.07200
H406        H  0.09486282  0.88615419  0.64637396     0.39000
O407        O  0.11518467  0.89531306  0.64482903    -1.09200
O408        O  0.16803357  0.88074820  0.61600320    -0.65900
Ni409      Ni  0.12631212  0.88274351  0.60962928     1.26300
O410        O  0.07550041  0.97134245  0.63814663    -0.66100
O411        O  0.12430238  0.81131307  0.61292096    -0.78400
C412        C  0.11959240  0.89242000  0.55583501     0.85100
O413        O  0.13594478  0.87432553  0.57354932    -0.65600
Ni414      Ni  0.13535775  0.86120416  0.67221776     1.27400
Ni415      Ni  0.11748520  0.96672717  0.64313600     1.26100
H416        H  0.14759927  0.96415049  0.60535144     0.39600
O417        O  0.35902501  0.16911984  0.19223553    -0.80400
O418        O  0.36421425  0.12441211  0.07388619    -0.65000
O419        O  0.38671440  0.14457184  0.14502056    -1.11700
C420        C  0.38439852  0.31559504  0.12034762     1.06500
O421        O  0.40022074  0.17344863  0.06189615    -0.78300
O422        O  0.43292972  0.22524543  0.09579069    -0.65800
Ni423      Ni  0.36816812  0.10948601  0.17259676     1.34900
C424        C  0.44210804  0.22345885  0.11907510     0.85300
O425        O  0.37711729  0.06079507  0.11279016    -0.78800
O426        O  0.37635617  0.04662358  0.15595026    -0.89100
C427        C  0.38046390  0.14207299  0.05622736     0.84800
O428        O  0.32914942  0.10927956  0.15891590    -0.67300
O429        O  0.39088142  0.29896091  0.09777152    -0.86600
C430        C  0.31797654  0.11785557  0.13665471     0.85700
C431        C  0.37797584  0.03165152  0.13242076     1.07200
H432        H  0.35287988  0.21406368  0.10578566     0.39000
O433        O  0.37298885  0.20360330  0.10813495    -1.09200
O434        O  0.42520331  0.22104629  0.13862614    -0.65900
Ni435      Ni  0.38334964  0.21606852  0.14356255     1.26300
O436        O  0.33318742  0.13010106  0.11698960    -0.66100
O437        O  0.37966306  0.28748205  0.13999243    -0.78400
C438        C  0.37646452  0.20445737  0.19769272     0.85100
O439        O  0.39167459  0.22469938  0.17998652    -0.65600
Ni440      Ni  0.39487781  0.23463827  0.08123676     1.27400
Ni441      Ni  0.37468706  0.13229948  0.10990395     1.26100
H442        H  0.40721672  0.13567800  0.14612593     0.39600
O443        O  0.36237699  0.67125073  0.19262832    -0.80400
O444        O  0.36659929  0.62407398  0.07283061    -0.65000
O445        O  0.38723600  0.64397450  0.14449579    -1.11700
C446        C  0.38205405  0.81614412  0.11942799     1.06500
O447        O  0.40168807  0.67609744  0.06248880    -0.78300
O448        O  0.43073470  0.74052091  0.09401194    -0.65800
Ni449      Ni  0.36675005  0.61144052  0.17186478     1.34900
C450        C  0.44193784  0.73216783  0.11624460     0.85300
O451        O  0.37920664  0.56043970  0.11210915    -0.78800
O452        O  0.37007095  0.54781258  0.15456226    -0.89100
C453        C  0.38307893  0.64341099  0.05577340     0.84800
O454        O  0.32809345  0.62138390  0.15852069    -0.67300
O455        O  0.38299616  0.80058521  0.09595047    -0.86600
C456        C  0.31781736  0.62479133  0.13558955     0.85700
C457        C  0.37545251  0.53183161  0.13166262     1.07200
H458        H  0.35258067  0.71273058  0.10686708     0.39000
O459        O  0.37300834  0.70330764  0.10791423    -1.09200
O460        O  0.42695575  0.71780057  0.13563922    -0.65900
Ni461      Ni  0.38539982  0.71555014  0.14267538     1.26300
O462        O  0.33389096  0.62777769  0.11542997    -0.66100
O463        O  0.38322038  0.78733985  0.13927858    -0.78400
C464        C  0.38088578  0.70563195  0.19679952     0.85100
O465        O  0.39589107  0.72393219  0.17844792    -0.65600
Ni466      Ni  0.39182816  0.73722390  0.08025121     1.27400
Ni467      Ni  0.37574950  0.63183755  0.10920431     1.26100
H468        H  0.40747833  0.63375533  0.14617739     0.39600
O469        O  0.35519947  0.30970139  0.31037405    -0.80400
O470        O  0.36355684  0.36352224  0.42820805    -0.65000
O471        O  0.38346983  0.33914767  0.35680665    -1.11700
C472        C  0.38351183  0.16929314  0.38412434     1.06500
O473        O  0.39938810  0.31356485  0.44101984    -0.78300
O474        O  0.43161687  0.25927296  0.40729794    -0.65800
Ni475      Ni  0.36194363  0.37088655  0.32927830     1.34900
C476        C  0.44044038  0.26114291  0.38396596     0.85300
O477        O  0.37450247  0.42487420  0.38786545    -0.78800
O478        O  0.36719596  0.43549561  0.34494460    -0.89100
C479        C  0.37926331  0.34502901  0.44626071     0.84800
O480        O  0.32386823  0.36495971  0.34386085    -0.67300
O481        O  0.38997618  0.18650634  0.40659155    -0.86600
C482        C  0.31472136  0.35903172  0.36689140     0.85700
C483        C  0.37170389  0.45262148  0.36777223     1.07200
H484        H  0.35168186  0.27209013  0.39763162     0.39000
O485        O  0.37171033  0.28216566  0.39504136    -1.09200
O486        O  0.42328764  0.26372053  0.36445656    -0.65900
Ni487      Ni  0.38136265  0.26774930  0.35965151     1.26300
O488        O  0.33140826  0.35469832  0.38654813    -0.66100
O489        O  0.37860325  0.19669628  0.36420532    -0.78400
C490        C  0.37389388  0.27567715  0.30535090     0.85100
O491        O  0.38953239  0.25697825  0.32342485    -0.65600
Ni492      Ni  0.39397041  0.25157392  0.42231727     1.27400
Ni493      Ni  0.37296827  0.35350263  0.39214905     1.26100
H494        H  0.40367579  0.34855027  0.35464281     0.39600
O495        O  0.36435525  0.81863876  0.30693792    -0.80400
O496        O  0.36167759  0.85937242  0.42694758    -0.65000
O497        O  0.38713732  0.84196960  0.35646226    -1.11700
C498        C  0.38138043  0.66880523  0.37911448     1.06500
O499        O  0.39655421  0.80698243  0.43831262    -0.78300
O500        O  0.42895866  0.74787124  0.40779106    -0.65800
Ni501      Ni  0.36811885  0.87708028  0.32876967     1.34900
C502        C  0.44049097  0.75563061  0.38581163     0.85300
O503        O  0.37778796  0.92415136  0.38982353    -0.78800
O504        O  0.37037073  0.93991965  0.34733380    -0.89100
C505        C  0.37600038  0.83660329  0.44453645     0.84800
O506        O  0.32894975  0.86718590  0.33978870    -0.67300
O507        O  0.38329854  0.68366432  0.40265141    -0.86600
C508        C  0.31723061  0.86417744  0.36201035     0.85700
C509        C  0.37482973  0.95415619  0.37074330     1.07200
H510        H  0.35042431  0.77245674  0.39193031     0.39000
O511        O  0.37084753  0.78142707  0.39156361    -1.09200
O512        O  0.42572497  0.76567693  0.36543235    -0.65900
Ni513      Ni  0.38449987  0.77025008  0.35708105     1.26300
O514        O  0.33241405  0.85946943  0.38275394    -0.66100
O515        O  0.38136115  0.69830889  0.35949148    -0.78400
C516        C  0.38226214  0.78283927  0.30289166     0.85100
O517        O  0.39640109  0.76295375  0.32157050    -0.65600
Ni518      Ni  0.38942439  0.74653948  0.41953529     1.27400
Ni519      Ni  0.37371749  0.85296094  0.39128553     1.26100
H520        H  0.40750828  0.85125115  0.35591680     0.39600
O521        O  0.64590680  0.31711275  0.19536409    -0.80400
O522        O  0.63825643  0.36408931  0.07419193    -0.65000
O523        O  0.62130845  0.34155589  0.14641519    -1.11700
C524        C  0.62848792  0.17020888  0.11992936     1.06500
O525        O  0.60466119  0.30927889  0.06371379    -0.78300
O526        O  0.57811137  0.24486965  0.09581097    -0.65800
Ni527      Ni  0.64451001  0.37387690  0.17237756     1.34900
C528        C  0.56745560  0.25218474  0.11826604     0.85300
O529        O  0.62486787  0.42538146  0.11419675    -0.78800
O530        O  0.64498358  0.43604590  0.15347663    -0.89100
C531        C  0.62190695  0.34393372  0.05718539     0.84800
O532        O  0.68104975  0.35349656  0.15824341    -0.67300
O533        O  0.62649821  0.18608018  0.09660732    -0.86600
C534        C  0.68987448  0.35700352  0.13499281     0.85700
C535        C  0.63405485  0.45344203  0.13247971     1.07200
H536        H  0.65595573  0.27589845  0.10737274     0.39000
O537        O  0.63536037  0.28375809  0.10891057    -1.09200
O538        O  0.58282212  0.26600412  0.13765313    -0.65900
Ni539      Ni  0.62445846  0.27014527  0.14395076     1.26300
O540        O  0.67258210  0.36233509  0.11564579    -0.66100
O541        O  0.62783473  0.19865255  0.13997145    -0.78400
C542        C  0.62967824  0.27930267  0.19853510     0.85100
O543        O  0.61523742  0.26000794  0.17993009    -0.65600
Ni544      Ni  0.61633585  0.24907361  0.08133120     1.27400
Ni545      Ni  0.63061324  0.35474414  0.11071046     1.26100
H546        H  0.60115702  0.35111605  0.14932219     0.39600
O547        O  0.65057297  0.81843299  0.19334055    -0.80400
O548        O  0.64463848  0.86119469  0.07396084    -0.65000
O549        O  0.62278941  0.84232197  0.14538810    -1.11700
C550        C  0.62674534  0.67111399  0.12197572     1.06500
O551        O  0.60984508  0.80960407  0.06105531    -0.78300
O552        O  0.57665447  0.76196025  0.09597510    -0.65800
Ni553      Ni  0.64253013  0.87729960  0.17281028     1.34900
C554        C  0.56754838  0.76226898  0.11921011     0.85300
O555        O  0.63235631  0.92538541  0.11270759    -0.78800
O556        O  0.63588524  0.93993477  0.15571153    -0.89100
C557        C  0.62859408  0.84307220  0.05609475     0.84800
O558        O  0.68140251  0.87357317  0.15931708    -0.67300
O559        O  0.61800367  0.68704121  0.09982102    -0.86600
C560        C  0.69182876  0.86439698  0.13694090     0.85700
C561        C  0.63306136  0.95473077  0.13229074     1.07200
H562        H  0.65658335  0.77235637  0.10622147     0.39000
O563        O  0.63647918  0.78270504  0.10859425    -1.09200
O564        O  0.58460565  0.76383914  0.13889363    -0.65900
Ni565      Ni  0.62660253  0.77103154  0.14413503     1.26300
O566        O  0.67608503  0.85504874  0.11708063    -0.66100
O567        O  0.63204559  0.70022911  0.14108251    -0.78400
C568        C  0.63352863  0.78249676  0.19838732     0.85100
O569        O  0.61820573  0.76267193  0.18051611    -0.65600
Ni570      Ni  0.61456930  0.75020080  0.08200489     1.27400
Ni571      Ni  0.63455806  0.85382554  0.11007348     1.26100
H572        H  0.60228981  0.85108259  0.14666935     0.39600
O573        O  0.64613662  0.16847031  0.31014537    -0.80400
O574        O  0.64116002  0.12743162  0.42992479    -0.65000
O575        O  0.61975615  0.14599728  0.35817100    -1.11700
C576        C  0.62708353  0.31811250  0.38154212     1.06500
O577        O  0.60594005  0.18071527  0.44020082    -0.78300
O578        O  0.57686262  0.24183444  0.40735157    -0.65800
Ni579      Ni  0.63820169  0.10999297  0.33069569     1.34900
C580        C  0.56627315  0.23599360  0.38470808     0.85300
O581        O  0.62852426  0.06269666  0.39111963    -0.78800
O582        O  0.63154633  0.04778457  0.34803803    -0.89100
C583        C  0.62449813  0.14747373  0.44686066     0.84800
O584        O  0.67720194  0.11209611  0.34393458    -0.67300
O585        O  0.62378806  0.30347700  0.40499378    -0.86600
C586        C  0.68846138  0.11863669  0.36630881     0.85700
C587        C  0.62908069  0.03327673  0.37151640     1.07200
H588        H  0.65508830  0.21406091  0.39571929     0.39000
O589        O  0.63468033  0.20546141  0.39428195    -1.09200
O590        O  0.58183638  0.22425543  0.36512677    -0.65900
Ni591      Ni  0.62340506  0.21731668  0.35910328     1.26300
O592        O  0.67331039  0.12869418  0.38648563    -0.66100
O593        O  0.62751861  0.28868915  0.36188317    -0.78400
C594        C  0.62935016  0.20538526  0.30515230     0.85100
O595        O  0.61400300  0.22548303  0.32292881    -0.65600
Ni596      Ni  0.61545790  0.24073477  0.42147878     1.27400
Ni597      Ni  0.63169443  0.13424950  0.39345344     1.26100
H598        H  0.59924090  0.13788561  0.35708121     0.39600
O599        O  0.64854502  0.67328079  0.31059566    -0.80400
O600        O  0.64252573  0.62503619  0.42876728    -0.65000
O601        O  0.62122717  0.64694271  0.35751526    -1.11700
C602        C  0.62770618  0.81818531  0.38281480     1.06500
O603        O  0.60841701  0.67919835  0.44047594    -0.78300
O604        O  0.57884044  0.74175108  0.40882296    -0.65800
Ni605      Ni  0.64069568  0.61316394  0.32986779     1.34900
C606        C  0.56738648  0.73465888  0.38660083     0.85300
O607        O  0.62941959  0.56245203  0.38930255    -0.78800
O608        O  0.63434281  0.54968793  0.34619450    -0.89100
C609        C  0.62669287  0.64490363  0.44626792     0.84800
O610        O  0.67937865  0.61559288  0.34362771    -0.67300
O611        O  0.62604531  0.80278121  0.40624258    -0.86600
C612        C  0.69004028  0.62038446  0.36631653     0.85700
C613        C  0.63083857  0.53387264  0.36936604     1.07200
H614        H  0.65643361  0.71350822  0.39532318     0.39000
O615        O  0.63597354  0.70506769  0.39425502    -1.09200
O616        O  0.58230725  0.72298056  0.36650599    -0.65900
Ni617      Ni  0.62395658  0.71820174  0.35936531     1.26300
O618        O  0.67443230  0.62854456  0.38633480    -0.66100
O619        O  0.62703852  0.78959727  0.36285636    -0.78400
C620        C  0.63107370  0.70922448  0.30555948     0.85100
O621        O  0.61448792  0.72726319  0.32314390    -0.65600
Ni622      Ni  0.61778528  0.73966459  0.42219774     1.27400
Ni623      Ni  0.63285320  0.63383184  0.39263905     1.26100
H624        H  0.60085104  0.63812162  0.35600944     0.39600
O625        O  0.85798678  0.05811743  0.30782741    -0.80400
O626        O  0.86343715  0.10788388  0.42646367    -0.65000
O627        O  0.88481638  0.08532950  0.35532485    -1.11700
C628        C  0.88225348  0.91462323  0.38075533     1.06500
O629        O  0.89844313  0.05612961  0.43928846    -0.78300
O630        O  0.93077980  0.00113605  0.40611625    -0.65800
Ni631      Ni  0.86432985  0.11845379  0.32771807     1.34900
C632        C  0.94041674  0.00417135  0.38308029     0.85300
O633        O  0.87635811  0.17017767  0.38721687    -0.78800
O634        O  0.86945491  0.18237901  0.34436495    -0.89100
C635        C  0.87928632  0.08941273  0.44440713     0.84800
O636        O  0.82561858  0.11261009  0.34115137    -0.67300
O637        O  0.88764054  0.93084445  0.40364534    -0.86600
C638        C  0.81557304  0.10730651  0.36393899     0.85700
C639        C  0.87401347  0.19865293  0.36738376     1.07200
H640        H  0.85104542  0.01787896  0.39446970     0.39000
O641        O  0.87127280  0.02737448  0.39255765    -1.09200
O642        O  0.92393021  0.00880889  0.36321765    -0.65900
Ni643      Ni  0.88215663  0.01397598  0.35733090     1.26300
O644        O  0.83173308  0.10220098  0.38399050    -0.66100
O645        O  0.87876145  0.94289898  0.36097227    -0.78400
C646        C  0.87637477  0.02341659  0.30300644     0.85100
O647        O  0.89152611  0.00426267  0.32126697    -0.65600
Ni648      Ni  0.89236606  0.99508594  0.42001174     1.27400
Ni649      Ni  0.87340399  0.09871862  0.39051858     1.26100
H650        H  0.90514720  0.09438017  0.35371166     0.39600
O651        O  0.85698572  0.56013135  0.30750061    -0.80400
O652        O  0.86611435  0.60688972  0.42593712    -0.65000
O653        O  0.88547133  0.58701127  0.35414819    -1.11700
C654        C  0.88506376  0.41523735  0.37814962     1.06500
O655        O  0.90180181  0.55565989  0.43777001    -0.78300
O656        O  0.93367741  0.50284228  0.40311544    -0.65800
Ni657      Ni  0.86401971  0.62038356  0.32721345     1.34900
C658        C  0.94250724  0.50682137  0.37986352     0.85300
O659        O  0.87719492  0.67037956  0.38673941    -0.78800
O660        O  0.86943229  0.68395273  0.34403367    -0.89100
C661        C  0.88225350  0.58788233  0.44355120     0.84800
O662        O  0.82589761  0.61452086  0.34161039    -0.67300
O663        O  0.89103094  0.43120924  0.40100107    -0.86600
C664        C  0.81655323  0.60810662  0.36453258     0.85700
C665        C  0.87415393  0.69934854  0.36718591     1.07200
H666        H  0.85350216  0.51755489  0.39353492     0.39000
O667        O  0.87357920  0.52758938  0.39121598    -1.09200
O668        O  0.92538273  0.51147510  0.36045271    -0.65900
Ni669      Ni  0.88349112  0.51557635  0.35560789     1.26300
O670        O  0.83323366  0.60183441  0.38414870    -0.66100
O671        O  0.88091846  0.44407882  0.35865122    -0.78400
C672        C  0.87567026  0.52655876  0.30167000     0.85100
O673        O  0.89184920  0.50761528  0.31927954    -0.65600
Ni674      Ni  0.89578448  0.49507795  0.41790313     1.27400
Ni675      Ni  0.87507050  0.59899830  0.38967396     1.26100
H676        H  0.90566551  0.59662738  0.35214788     0.39600
O677        O  0.85840006  0.41892625  0.19003415    -0.80400
O678        O  0.86243217  0.36723339  0.07215259    -0.65000
O679        O  0.88514025  0.39032064  0.14297973    -1.11700
C680        C  0.88185580  0.56058502  0.11581868     1.06500
O681        O  0.89855159  0.41569079  0.05995554    -0.78300
O682        O  0.93049178  0.47575987  0.09166783    -0.65800
Ni683      Ni  0.86566541  0.35797542  0.17106058     1.34900
C684        C  0.94043552  0.47328853  0.11473218     0.85300
O685        O  0.87498022  0.30520661  0.11194468    -0.78800
O686        O  0.87152837  0.29380836  0.15520531    -0.89100
C687        C  0.87838643  0.38501420  0.05432235     0.84800
O688        O  0.82669929  0.36075490  0.15763113    -0.67300
O689        O  0.88610523  0.54341424  0.09290904    -0.86600
C690        C  0.81605103  0.36702279  0.13501449     0.85700
C691        C  0.87394156  0.27727317  0.13203522     1.07200
H692        H  0.85115987  0.45802996  0.10350329     0.39000
O693        O  0.87136015  0.44778298  0.10543664    -1.09200
O694        O  0.92429658  0.46580285  0.13447587    -0.65900
Ni695      Ni  0.88248731  0.46177728  0.14036636     1.26300
O696        O  0.83154725  0.37538648  0.11501638    -0.66100
O697        O  0.87923407  0.53293859  0.13594955    -0.78400
C698        C  0.87639033  0.45385443  0.19450195     0.85100
O699        O  0.89163763  0.47238800  0.17637472    -0.65600
Ni700      Ni  0.89178884  0.47839959  0.07760707     1.27400
Ni701      Ni  0.87299401  0.37655603  0.10803578     1.26100
H702        H  0.90552810  0.38082964  0.14436164     0.39600
O703        O  0.86108082  0.91288379  0.19101851    -0.80400
O704        O  0.86668582  0.87019572  0.07057679    -0.65000
O705        O  0.88690360  0.88976707  0.14253803    -1.11700
C706        C  0.87737003  0.06181745  0.11894953     1.06500
O707        O  0.90003702  0.92545360  0.05999984    -0.78300
O708        O  0.92772227  0.98884898  0.09230051    -0.65800
Ni709      Ni  0.86764620  0.85438001  0.16966706     1.34900
C710        C  0.93907505  0.98039454  0.11441620     0.85300
O711        O  0.88108096  0.80676823  0.10932768    -0.78800
O712        O  0.87277806  0.79179788  0.15163789    -0.89100
C713        C  0.88259110  0.89087882  0.05349386     0.84800
O714        O  0.82887575  0.86162206  0.15661257    -0.67300
O715        O  0.87923741  0.04722055  0.09534534    -0.86600
C716        C  0.81844822  0.86630524  0.13386457     0.85700
C717        C  0.87832289  0.77705999  0.12853284     1.07200
H718        H  0.85049161  0.95673779  0.10521849     0.39000
O719        O  0.87112954  0.94888093  0.10629516    -1.09200
O720        O  0.92436045  0.96670233  0.13415755    -0.65900
Ni721      Ni  0.88287026  0.96108638  0.14133631     1.26300
O722        O  0.83413405  0.87104373  0.11356478    -0.66100
O723        O  0.87850891  0.03238883  0.13850365    -0.78400
C724        C  0.87787885  0.94949943  0.19565553     0.85100
O725        O  0.89254863  0.96972557  0.17754860    -0.65600
Ni726      Ni  0.88894434  0.98498882  0.07878855     1.27400
Ni727      Ni  0.87576537  0.87780184  0.10707152     1.26100
H728        H  0.90745283  0.88131592  0.14412155     0.39600
O729        O  0.14620875  0.06028193  0.19255844    -0.80400
O730        O  0.14136886  0.10810133  0.07330045    -0.65000
O731        O  0.12126193  0.09027315  0.14495703    -1.11700
C732        C  0.12344318  0.91734956  0.12062789     1.06500
O733        O  0.10572280  0.05672584  0.06277373    -0.78300
O734        O  0.07638611  0.99394448  0.09423701    -0.65800
Ni735      Ni  0.14280796  0.12101477  0.17228516     1.34900
C736        C  0.06500071  0.00580173  0.11587251     0.85300
O737        O  0.13044497  0.17240799  0.11256776    -0.78800
O738        O  0.14027698  0.18496017  0.15502508    -0.89100
C739        C  0.12414483  0.08979358  0.05636047     0.84800
O740        O  0.18112280  0.10892685  0.15883348    -0.67300
O741        O  0.12406911  0.93260028  0.09709191    -0.86600
C742        C  0.19096469  0.10531813  0.13584374     0.85700
C743        C  0.13474650  0.20104896  0.13209213     1.07200
H744        H  0.15455780  0.01927501  0.10811369     0.39000
O745        O  0.13426829  0.02964382  0.10871660    -1.09200
O746        O  0.07982932  0.02027774  0.13544234    -0.65900
Ni747      Ni  0.12122311  0.01889727  0.14335636     1.26300
O748        O  0.17454117  0.10334668  0.11577222    -0.66100
O749        O  0.12144767  0.94697612  0.14017063    -0.78400
C750        C  0.12607743  0.02907571  0.19747573     0.85100
O751        O  0.11011677  0.01243040  0.17913693    -0.65600
Ni752      Ni  0.11540029  0.99576571  0.08093971     1.27400
Ni753      Ni  0.13263188  0.10110133  0.10971001     1.26100
H754        H  0.10132323  0.10209269  0.14666348     0.39600
O755        O  0.15113023  0.55715487  0.19265817    -0.80400
O756        O  0.14045272  0.61162811  0.07553931    -0.65000
O757        O  0.12151843  0.58697933  0.14710041    -1.11700
C758        C  0.12582056  0.41703263  0.11975912     1.06500
O759        O  0.10490040  0.56058088  0.06473919    -0.78300
O760        O  0.07556884  0.49957972  0.09634097    -0.65800
Ni761      Ni  0.14161392  0.61878442  0.17490824     1.34900
C762        C  0.06578038  0.50458175  0.11924367     0.85300
O763        O  0.12919413  0.67316269  0.11672972    -0.78800
O764        O  0.13274868  0.68298869  0.16002412    -0.89100
C765        C  0.12381325  0.59267676  0.05825258     0.84800
O766        O  0.18010179  0.61899374  0.16027796    -0.67300
O767        O  0.12167484  0.43386757  0.09677375    -0.86600
C768        C  0.19039991  0.61297680  0.13753599     0.85700
C769        C  0.12902336  0.70067383  0.13719491     1.07200
H770        H  0.15473023  0.52061238  0.10720965     0.39000
O771        O  0.13445917  0.53022543  0.10927404    -1.09200
O772        O  0.08213457  0.51209757  0.13898275    -0.65900
Ni773      Ni  0.12416996  0.51584205  0.14434998     1.26300
O774        O  0.17422081  0.60410555  0.11780294    -0.66100
O775        O  0.12737606  0.44473924  0.13998206    -0.78400
C776        C  0.13335308  0.52228330  0.19789671     0.85100
O777        O  0.11624743  0.50543883  0.18048899    -0.65600
Ni778      Ni  0.11387274  0.49841864  0.08178178     1.27400
Ni779      Ni  0.13217092  0.60161407  0.11202479     1.26100
H780        H  0.10115743  0.59626128  0.14898120     0.39600
O781        O  0.15100707  0.41089795  0.30982973    -0.80400
O782        O  0.13661466  0.36680655  0.42913077    -0.65000
O783        O  0.12152303  0.38803610  0.35641949    -1.11700
C784        C  0.12987231  0.55932305  0.38193151     1.06500
O785        O  0.10178240  0.42172861  0.43711166    -0.78300
O786        O  0.07695592  0.48708015  0.40400522    -0.65800
Ni787      Ni  0.14231763  0.35242622  0.33004260     1.34900
C788        C  0.06772772  0.48077350  0.38095755     0.85300
O789        O  0.12627658  0.30404370  0.38929503    -0.78800
O790        O  0.13549150  0.28988456  0.34691603    -0.89100
C791        C  0.11920144  0.38782931  0.44507827     0.84800
O792        O  0.17991257  0.35682204  0.34565393    -0.67300
O793        O  0.12526549  0.54412783  0.40508154    -0.86600
C794        C  0.18898919  0.36129200  0.36889479     0.85700
C795        C  0.12990743  0.27497733  0.36985185     1.07200
H796        H  0.15491242  0.45346879  0.39644987     0.39000
O797        O  0.13450263  0.44597958  0.39386749    -1.09200
O798        O  0.08418764  0.46722054  0.36229122    -0.65900
Ni799      Ni  0.12600897  0.45912931  0.35836410     1.26300
O800        O  0.17215821  0.36822233  0.38827186    -0.66100
O801        O  0.13099512  0.53016988  0.36215597    -0.78400
C802        C  0.13446389  0.44785749  0.30450026     0.85100
O803        O  0.11895876  0.46863429  0.32194762    -0.65600
Ni804      Ni  0.11429202  0.48172670  0.42023206     1.27400
Ni805      Ni  0.13025832  0.37508750  0.39232249     1.26100
H806        H  0.10109055  0.38061398  0.35375766     0.39600
O807        O  0.14154396  0.91159389  0.30621711    -0.80400
O808        O  0.14175785  0.86815055  0.42797754    -0.65000
O809        O  0.11971347  0.88905620  0.35642425    -1.11700
C810        C  0.12738316  0.06015784  0.38255303     1.06500
O811        O  0.10619922  0.92028588  0.43818378    -0.78300
O812        O  0.07758741  0.98548607  0.40746312    -0.65800
Ni813      Ni  0.13924574  0.85426225  0.32888857     1.34900
C814        C  0.06652634  0.97870977  0.38508243     0.85300
O815        O  0.12753877  0.80524219  0.38911721    -0.78800
O816        O  0.13819151  0.79185089  0.34724703    -0.89100
C817        C  0.12499478  0.88764192  0.44494641     0.84800
O818        O  0.17778588  0.86701939  0.34108689    -0.67300
O819        O  0.12532798  0.04449418  0.40589612    -0.86600
C820        C  0.18891062  0.87056377  0.36370513     0.85700
C821        C  0.13209638  0.77608907  0.36992035     1.07200
H822        H  0.15563094  0.95569216  0.39444741     0.39000
O823        O  0.13516091  0.94724722  0.39319229    -1.09200
O824        O  0.08169941  0.96609996  0.36539634    -0.65900
Ni825      Ni  0.12314845  0.96054143  0.35847869     1.26300
O826        O  0.17346188  0.87124853  0.38436340    -0.66100
O827        O  0.12689451  0.03171125  0.36249367    -0.78400
C828        C  0.12558386  0.95044417  0.30354193     0.85100
O829        O  0.11279492  0.97108919  0.32271361    -0.65600
Ni830      Ni  0.11639095  0.98127149  0.42109708     1.27400
Ni831      Ni  0.13180085  0.87629922  0.39169513     1.26100
H832        H  0.09928785  0.88050349  0.35506038     0.39600
C833        C  0.13233745  0.61448215  0.37799634    -0.04800
C834        C  0.14478900  0.64508425  0.39760619    -0.01900
C835        C  0.14255530  0.69765205  0.39606042     0.03100
C836        C  0.13066745  0.72069309  0.37358170    -0.04800
C837        C  0.11872313  0.69008362  0.35369985    -0.01900
C838        C  0.11906984  0.63755568  0.35610306     0.03100
C839        C  0.16090228  0.62278781  0.41912494     0.37700
C840        C  0.10436062  0.71247666  0.33125677     0.37700
C841        C  0.10445867  0.60766262  0.33640774     0.36100
C842        C  0.15173406  0.72748761  0.41816263     0.36100
N843        N  0.09276843  0.58386894  0.32074388    -0.38700
N844        N  0.15818822  0.75060146  0.43630986    -0.38700
N845        N  0.09286964  0.73004194  0.31332711    -0.38100
N846        N  0.17401242  0.60528635  0.43618586    -0.38100
C847        C  0.12857217  0.22033164  0.37385630    -0.04800
C848        C  0.14838875  0.19671106  0.39112490    -0.01900
C849        C  0.14822544  0.14430937  0.39392818     0.03100
C850        C  0.12893618  0.11501285  0.37874161    -0.04800
C851        C  0.10932322  0.13879704  0.36126876    -0.01900
C852        C  0.10916112  0.19121176  0.35886145     0.03100
C853        C  0.16999770  0.22612401  0.40500388     0.37700
C854        C  0.08826152  0.10960417  0.34661355     0.37700
C855        C  0.08851080  0.21530808  0.34129938     0.36100
C856        C  0.16818409  0.12069233  0.41228538     0.36100
N857        N  0.07202505  0.23447337  0.32729464    -0.38700
N858        N  0.18393542  0.10206374  0.42713052    -0.38700
N859        N  0.07152250  0.08617111  0.33497885    -0.38100
N860        N  0.18739161  0.24961180  0.41581501    -0.38100
C861        C  0.13348633  0.50056276  0.22466587    -0.04800
C862        C  0.16032025  0.48961606  0.23738215    -0.01900
C863        C  0.16065284  0.47266830  0.26339300     0.03100
C864        C  0.13416506  0.46738008  0.27729825    -0.04800
C865        C  0.10731962  0.47765338  0.26449379    -0.01900
C866        C  0.10696128  0.49338145  0.23823138     0.03100
C867        C  0.18776542  0.49449447  0.22351838     0.37700
C868        C  0.07988949  0.47063885  0.27809359     0.37700
C869        C  0.07915580  0.50295883  0.22537786     0.36100
C870        C  0.18849407  0.46141262  0.27589755     0.36100
N871        N  0.05694645  0.51022082  0.21510050    -0.38700
N872        N  0.21067774  0.45210380  0.28578463    -0.38700
N873        N  0.05807677  0.46509988  0.28903446    -0.38100
N874        N  0.20968512  0.49840820  0.21254235    -0.38100
C875        C  0.12506948  0.75644819  0.13437299    -0.04800
C876        C  0.13694028  0.79021780  0.15298767    -0.01900
C877        C  0.13789183  0.84200790  0.14780544     0.03100
C878        C  0.12423193  0.86198124  0.12532862    -0.04800
C879        C  0.10961738  0.82883210  0.10810984    -0.01900
C880        C  0.10989057  0.77673275  0.11269303     0.03100
C881        C  0.14684523  0.77298967  0.17831603     0.37700
C882        C  0.09312627  0.84809806  0.08602862     0.37700
C883        C  0.09216137  0.74465840  0.09627267     0.36100
C884        C  0.15406688  0.87426732  0.16538063     0.36100
N885        N  0.07760966  0.71940032  0.08340123    -0.38700
N886        N  0.16705123  0.89969516  0.17944499    -0.38700
N887        N  0.07994252  0.86330487  0.06842855    -0.38100
N888        N  0.15404354  0.75997073  0.19885066    -0.38100
C889        C  0.13305212  0.25630592  0.12823719    -0.04800
C890        C  0.15363143  0.28805533  0.14048045    -0.01900
C891        C  0.15098851  0.34050085  0.13821719     0.03100
C892        C  0.12835931  0.36185692  0.12293101    -0.04800
C893        C  0.10811675  0.33017336  0.11029475    -0.01900
C894        C  0.11035087  0.27783968  0.11303016     0.03100
C895        C  0.17840781  0.26684635  0.15451048     0.37700
C896        C  0.08415025  0.35140959  0.09515561     0.37700
C897        C  0.08855373  0.24652981  0.10069424     0.36100
C898        C  0.17209681  0.37236979  0.15115580     0.36100
N899        N  0.07106743  0.22207639  0.09064948    -0.38700
N900        N  0.18882965  0.39778806  0.16158971    -0.38700
N901        N  0.06511455  0.36839128  0.08305823    -0.38100
N902        N  0.19824985  0.24989390  0.16554896    -0.38100
C903        C  0.12276049  0.01026287  0.22494449    -0.04800
C904        C  0.13023772  0.04135715  0.24641782    -0.01900
C905        C  0.13026824  0.02244517  0.27212158     0.03100
C906        C  0.12274742  0.97230788  0.27690600    -0.04800
C907        C  0.11380924  0.94195642  0.25580942    -0.01900
C908        C  0.11314121  0.96100735  0.23013696     0.03100
C909        C  0.13722959  0.09356885  0.24238587     0.37700
C910        C  0.10521532  0.89067317  0.26050864     0.37700
C911        C  0.10241620  0.92933141  0.20931380     0.36100
C912        C  0.13956608  0.05414350  0.29348951     0.36100
N913        N  0.09330839  0.90398092  0.19296988    -0.38700
N914        N  0.14718964  0.07967565  0.31034917    -0.38700
N915        N  0.09852466  0.84970561  0.26420048    -0.38100
N916        N  0.14276833  0.13522947  0.23925575    -0.38100
C917        C  0.97119068  0.98785289  0.11700803    -0.04800
C918        C  0.98986102  0.94762883  0.12376268    -0.01900
C919        C  0.02050068  0.95428317  0.12456683     0.03100
C920        C  0.03276760  0.00097473  0.11825772    -0.04800
C921        C  0.01412872  0.04139396  0.11190375    -0.01900
C922        C  0.98348144  0.03487851  0.11111851     0.03100
C923        C  0.97771388  0.89849020  0.12812808     0.37700
C924        C  0.02655134  0.08962317  0.10594725     0.37700
C925        C  0.96462887  0.07654049  0.10387005     0.36100
C926        C  0.03941373  0.91272775  0.13166434     0.36100
N927        N  0.94968067  0.10973790  0.09789250    -0.38700
N928        N  0.05415376  0.87927640  0.13760364    -0.38700
N929        N  0.03641843  0.12823774  0.10136871    -0.38100
N930        N  0.96810437  0.85913069  0.13131181    -0.38100
C931        C  0.88088437  0.61604775  0.11905534    -0.04800
C932        C  0.86621681  0.64651493  0.10054099    -0.01900
C933        C  0.86694020  0.69912056  0.10266378     0.03100
C934        C  0.88101947  0.72202435  0.12410665    -0.04800
C935        C  0.89623597  0.69161945  0.14229411    -0.01900
C936        C  0.89642648  0.63909804  0.13963986     0.03100
C937        C  0.84938882  0.62389279  0.07967256     0.37700
C938        C  0.91298253  0.71440451  0.16317526     0.37700
C939        C  0.91373989  0.60904778  0.15758906     0.36100
C940        C  0.85262470  0.72942067  0.08287830     0.36100
N941        N  0.92752714  0.58511445  0.17190441    -0.38700
N942        N  0.84132740  0.75349492  0.06701006    -0.38700
N943        N  0.92643196  0.73248768  0.17977625    -0.38100
N944        N  0.83589316  0.60596372  0.06305617    -0.38100
C945        C  0.87498325  0.11656098  0.12362485    -0.04800
C946        C  0.85536601  0.14611998  0.10870104    -0.01900
C947        C  0.85525292  0.19862912  0.11122110     0.03100
C948        C  0.87488461  0.22216045  0.12857484    -0.04800
C949        C  0.89404631  0.19258598  0.14391281    -0.01900
C950        C  0.89406545  0.14009168  0.14151447     0.03100
C951        C  0.83458986  0.12243869  0.09127352     0.37700
C952        C  0.91447248  0.21623929  0.16168591     0.37700
C953        C  0.91451171  0.11058635  0.15694849     0.36100
C954        C  0.83397819  0.22824008  0.09676393     0.36100
N955        N  0.93062467  0.08708295  0.16943836    -0.38700
N956        N  0.81690066  0.25184051  0.08537871    -0.38700
N957        N  0.93072873  0.23513265  0.17586278    -0.38100
N958        N  0.81801191  0.10353131  0.07740057    -0.38100
C959        C  0.97231995  0.48292742  0.11861888    -0.04800
C960        C  0.99074562  0.44852618  0.13179078    -0.01900
C961        C  0.02121839  0.45744422  0.13383680     0.03100
C962        C  0.03350225  0.50046837  0.12248199    -0.04800
C963        C  0.01484623  0.53626718  0.11083464    -0.01900
C964        C  0.98448240  0.52760944  0.10883487     0.03100
C965        C  0.97868475  0.40261844  0.14189320     0.37700
C966        C  0.02694406  0.58275255  0.10147017     0.37700
C967        C  0.96570756  0.56517891  0.09686288     0.36100
C968        C  0.04012188  0.42160741  0.14691636     0.36100
N969        N  0.95079493  0.59515428  0.08728978    -0.38700
N970        N  0.05526136  0.39326326  0.15749356    -0.38700
N971        N  0.03658033  0.62016906  0.09444265    -0.38100
N972        N  0.96910885  0.36581230  0.14982843    -0.38100
C973        C  0.97457078  0.50456381  0.37546279    -0.04800
C974        C  0.98738618  0.46265435  0.36306482    -0.01900
C975        C  0.01810367  0.45563432  0.36356679     0.03100
C976        C  0.03612504  0.49105033  0.37608494    -0.04800
C977        C  0.02336513  0.53550738  0.38599339    -0.01900
C978        C  0.99271939  0.54167899  0.38612398     0.03100
C979        C  0.96886775  0.42533032  0.35107229     0.37700
C980        C  0.04180156  0.57523194  0.39592263     0.37700
C981        C  0.97976852  0.58603604  0.39757701     0.36100
C982        C  0.03085755  0.41060521  0.35255211     0.36100
N983        N  0.96944236  0.62138575  0.40679687    -0.38700
N984        N  0.04090358  0.37457258  0.34373476    -0.38700
N985        N  0.05647994  0.60701738  0.40368947    -0.38100
N986        N  0.95411741  0.39556107  0.34145799    -0.38100
C987        C  0.87742564  0.50834051  0.27400464    -0.04800
C988        C  0.87094100  0.54129314  0.25299177    -0.01900
C989        C  0.87118719  0.52385973  0.22700301     0.03100
C990        C  0.87846922  0.47372242  0.22149098    -0.04800
C991        C  0.88567053  0.44108125  0.24215145    -0.01900
C992        C  0.88496709  0.45799782  0.26821589     0.03100
C993        C  0.86394660  0.59349966  0.25779660     0.37700
C994        C  0.89375362  0.38960252  0.23652083     0.37700
C995        C  0.89067259  0.42239818  0.28890994     0.36100
C996        C  0.86216864  0.55691873  0.20604729     0.36100
N997        N  0.89518198  0.39345085  0.30516235    -0.38700
N998        N  0.85458151  0.58331409  0.18949218    -0.38700
N999        N  0.90015934  0.34860823  0.23194340    -0.38100
N1000       N  0.85817743  0.63508164  0.26151897    -0.38100
C1001       C  0.88015462  0.85955831  0.37720426    -0.04800
C1002       C  0.90223133  0.82763158  0.38734924    -0.01900
C1003       C  0.89993790  0.77532969  0.38467001     0.03100
C1004       C  0.87591508  0.75430833  0.37131821    -0.04800
C1005       C  0.85375499  0.78622087  0.36129216    -0.01900
C1006       C  0.85579053  0.83849989  0.36436496     0.03100
C1007       C  0.92793357  0.84851176  0.39986193     0.37700
C1008       C  0.82815990  0.76523177  0.34866973     0.37700
C1009       C  0.83210527  0.87040255  0.35523758     0.36100
C1010       C  0.92282056  0.74342640  0.39521192     0.36100
N1011       N  0.81306982  0.89563256  0.34803375    -0.38700
N1012       N  0.94121652  0.71860789  0.40391225    -0.38700
N1013       N  0.80771412  0.74854484  0.33866248    -0.38100
N1014       N  0.94850771  0.86493246  0.40978236    -0.38100
C1015       C  0.87654741  0.25401407  0.37080532    -0.04800
C1016       C  0.90000442  0.27490044  0.38505389    -0.01900
C1017       C  0.90331839  0.32731168  0.38661248     0.03100
C1018       C  0.88276733  0.35984178  0.37452690    -0.04800
C1019       C  0.85934836  0.33892812  0.36020394    -0.01900
C1020       C  0.85613751  0.28650714  0.35854534     0.03100
C1021       C  0.92130585  0.24275633  0.39778351     0.37700
C1022       C  0.83799264  0.37113832  0.34753630     0.37700
C1023       C  0.83091755  0.26605816  0.34509751     0.36100
C1024       C  0.92880268  0.34760679  0.39974857     0.36100
N1025       N  0.81076518  0.24966525  0.33449852    -0.38700
N1026       N  0.94921151  0.36372401  0.41007513    -0.38700
N1027       N  0.82097931  0.39654661  0.33719664    -0.38100
N1028       N  0.93846747  0.21793417  0.40828762    -0.38100
C1029       C  0.03435603  0.98735868  0.38195162    -0.04800
C1030       C  0.02111664  0.03055693  0.39294468    -0.01900
C1031       C  0.99053189  0.03757087  0.39151784     0.03100
C1032       C  0.97268932  0.00142044  0.37965104    -0.04800
C1033       C  0.98588316  0.96009835  0.36708249    -0.01900
C1034       C  0.01659043  0.95289455  0.36833185     0.03100
C1035       C  0.03885154  0.06833392  0.40559033     0.37700
C1036       C  0.96778422  0.92425736  0.35343601     0.37700
C1037       C  0.02954903  0.90848501  0.35683664     0.36100
C1038       C  0.97730375  0.08309648  0.40135519     0.36100
N1039       N  0.03972340  0.87287473  0.34768003    -0.38700
N1040       N  0.96659098  0.11973228  0.40866501    -0.38700
N1041       N  0.95338776  0.89581648  0.34238402    -0.38100
N1042       N  0.05282149  0.09848486  0.41581285    -0.38100
C1043       C  0.87926933  0.96902458  0.22299540    -0.04800
C1044       C  0.87544904  0.02040062  0.22842950    -0.01900
C1045       C  0.87640160  0.03811586  0.25437382     0.03100
C1046       C  0.87888700  0.00436202  0.27556093    -0.04800
C1047       C  0.88241465  0.95277450  0.27012203    -0.01900
C1048       C  0.88285969  0.93538784  0.24407598     0.03100
C1049       C  0.86767301  0.05471760  0.20769450     0.37700
C1050       C  0.88463937  0.91690372  0.29117671     0.37700
C1051       C  0.88662949  0.88234280  0.23902196     0.36100
C1052       C  0.87557954  0.09160272  0.25910875     0.36100
N1053       N  0.88940965  0.84004565  0.23492314    -0.38700
N1054       N  0.87518719  0.13421487  0.26296175    -0.38700
N1055       N  0.88647184  0.88779594  0.30773314    -0.38100
N1056       N  0.86054531  0.08243967  0.19158482    -0.38100
C1057       C  0.72236772  0.61434284  0.36911253    -0.04800
C1058       C  0.73661716  0.57458726  0.35590606    -0.01900
C1059       C  0.76738603  0.57194388  0.35508326     0.03100
C1060       C  0.78435974  0.60790127  0.36817693    -0.04800
C1061       C  0.77030142  0.64574690  0.38284778    -0.01900
C1062       C  0.73936530  0.64895702  0.38337593     0.03100
C1063       C  0.71959331  0.53574825  0.34334251     0.37700
C1064       C  0.78766960  0.68333986  0.39598165     0.37700
C1065       C  0.72528312  0.68928850  0.39759154     0.36100
C1066       C  0.78164208  0.53247844  0.34032069     0.36100
N1067       N  0.71432456  0.72157260  0.40907776    -0.38700
N1068       N  0.79298996  0.50126734  0.32835958    -0.38700
N1069       N  0.80152117  0.71350692  0.40631513    -0.38100
N1070       N  0.70593210  0.50486629  0.33339364    -0.38100
C1071       C  0.62786204  0.97858703  0.37577137    -0.04800
C1072       C  0.60529223  0.95033792  0.36422056    -0.01900
C1073       C  0.60581347  0.89773956  0.36579582     0.03100
C1074       C  0.62896994  0.87296938  0.37888351    -0.04800
C1075       C  0.65169674  0.90116304  0.39023707    -0.01900
C1076       C  0.65105274  0.95383964  0.38883664     0.03100
C1077       C  0.58107627  0.97553342  0.35127273     0.37700
C1078       C  0.67633084  0.87582954  0.40246939     0.37700
C1079       C  0.67473560  0.98252872  0.40014654     0.36100
C1080       C  0.58203165  0.86914458  0.35457153     0.36100
N1081       N  0.69357368  0.00548503  0.40918677    -0.38700
N1082       N  0.56310069  0.84623350  0.34565809    -0.38700
N1083       N  0.69610288  0.85561246  0.41202729    -0.38100
N1084       N  0.56169265  0.99559077  0.34102609    -0.38100
C1085       C  0.62930379  0.47875858  0.37296821    -0.04800
C1086       C  0.61038421  0.44979768  0.35725610    -0.01900
C1087       C  0.61021832  0.39722646  0.35953341     0.03100
C1088       C  0.62938046  0.37291890  0.37718299    -0.04800
C1089       C  0.64903815  0.40172593  0.39218655    -0.01900
C1090       C  0.64863995  0.45439433  0.39045314     0.03100
C1091       C  0.59049340  0.47412938  0.33909836     0.37700
C1092       C  0.67078362  0.37700370  0.40842207     0.37700
C1093       C  0.66894040  0.48339313  0.40602145     0.36100
C1094       C  0.58966142  0.36829886  0.34419075     0.36100
N1095       N  0.68501940  0.50667308  0.41845975    -0.38700
N1096       N  0.57333413  0.34512229  0.33195968    -0.38700
N1097       N  0.68838210  0.35727930  0.42109494    -0.38100
N1098       N  0.57470698  0.49348140  0.32453752    -0.38100
C1099       C  0.72101280  0.11309892  0.36848612    -0.04800
C1100       C  0.73539893  0.07332028  0.35529479    -0.01900
C1101       C  0.76624786  0.07087295  0.35440530     0.03100
C1102       C  0.78320698  0.10744451  0.36706152    -0.04800
C1103       C  0.76904728  0.14572766  0.38132642    -0.01900
C1104       C  0.73809721  0.14842164  0.38219362     0.03100
C1105       C  0.71851024  0.03413407  0.34288903     0.37700
C1106       C  0.78635346  0.18426598  0.39374471     0.37700
C1107       C  0.72406738  0.18899191  0.39624614     0.36100
C1108       C  0.78062884  0.03068886  0.34026523     0.36100
N1109       N  0.71316464  0.22149157  0.40760321    -0.38700
N1110       N  0.79213470  0.99885917  0.32886888    -0.38700
N1111       N  0.80020178  0.21517495  0.40345509    -0.38100
N1112       N  0.70505824  0.00289205  0.33301537    -0.38100
C1113       C  0.72414375  0.86553017  0.13394120    -0.04800
C1114       C  0.73988835  0.82176343  0.12722934    -0.01900
C1115       C  0.77080532  0.82220408  0.12653376     0.03100
C1116       C  0.78611063  0.86686657  0.13145671    -0.04800
C1117       C  0.77035230  0.91086886  0.13756790    -0.01900
C1118       C  0.73952060  0.91010615  0.13910182     0.03100
C1119       C  0.72441664  0.77549217  0.12254779     0.37700
C1120       C  0.78604063  0.95661670  0.14310203     0.37700
C1121       C  0.72362352  0.95516270  0.14631466     0.36100
C1122       C  0.78683456  0.77586466  0.12261655     0.36100
N1123       N  0.71095647  0.99100732  0.15223748    -0.38700
N1124       N  0.79923887  0.73836026  0.11998487    -0.38700
N1125       N  0.79868012  0.99294851  0.14753906    -0.38100
N1126       N  0.71226399  0.73838370  0.11885587    -0.38100
C1127       C  0.63269615  0.76279086  0.22568683    -0.04800
C1128       C  0.65902143  0.75580002  0.23992895    -0.01900
C1129       C  0.65837717  0.73988746  0.26613589     0.03100
C1130       C  0.63139212  0.73072457  0.27866792    -0.04800
C1131       C  0.60506779  0.73828669  0.26460061    -0.01900
C1132       C  0.60570202  0.75395800  0.23826971     0.03100
C1133       C  0.68705473  0.76396453  0.22750320     0.37700
C1134       C  0.57724465  0.72862891  0.27701877     0.37700
C1135       C  0.57840029  0.76242141  0.22442346     0.36100
C1136       C  0.68572052  0.73404177  0.28036423     0.36100
N1137       N  0.55657744  0.76920640  0.21343072    -0.38700
N1138       N  0.70754803  0.72939082  0.29164252    -0.38700
N1139       N  0.55512994  0.72093182  0.28707388    -0.38100
N1140       N  0.70939527  0.77064403  0.21763172    -0.38100
C1141       C  0.63239572  0.50915607  0.12968994    -0.04800
C1142       C  0.63742777  0.53239401  0.10543453    -0.01900
C1143       C  0.63728078  0.58502881  0.10338468     0.03100
C1144       C  0.63055195  0.61561371  0.12523630    -0.04800
C1145       C  0.62669716  0.59236588  0.14972790    -0.01900
C1146       C  0.62707254  0.53974426  0.15182051     0.03100
C1147       C  0.64357596  0.50256127  0.08243455     0.37700
C1148       C  0.62249946  0.62199175  0.17314878     0.37700
C1149       C  0.62072811  0.51738469  0.17689255     0.36100
C1150       C  0.64609270  0.60744874  0.07894776     0.36100
N1151       N  0.61568337  0.49979526  0.19691338    -0.38700
N1152       N  0.65339208  0.62528997  0.05956193    -0.38700
N1153       N  0.61951045  0.64511747  0.19201649    -0.38100
N1154       N  0.64845961  0.47927839  0.06393557    -0.38100
C1155       C  0.63038274  0.11516894  0.12361196    -0.04800
C1156       C  0.61059071  0.09106329  0.14043265    -0.01900
C1157       C  0.61088687  0.03853713  0.14258773     0.03100
C1158       C  0.63098996  0.00951653  0.12802715    -0.04800
C1159       C  0.65039450  0.03344771  0.11083434    -0.01900
C1160       C  0.65002089  0.08600154  0.10856693     0.03100
C1161       C  0.58881825  0.12000139  0.15457265     0.37700
C1162       C  0.67146762  0.00420109  0.09606500     0.37700
C1163       C  0.67025711  0.11005831  0.09098634     0.36100
C1164       C  0.58965881  0.01414899  0.15910204     0.36100
N1165       N  0.68627244  0.12925466  0.07686188    -0.38700
N1166       N  0.57269546  0.99457807  0.17216832    -0.38700
N1167       N  0.68830380  0.98091463  0.08431473    -0.38100
N1168       N  0.57137020  0.14300411  0.16575854    -0.38100
C1169       C  0.72197126  0.35671444  0.13081672    -0.04800
C1170       C  0.73892586  0.31533597  0.13901567    -0.01900
C1171       C  0.76970528  0.31850607  0.13994228     0.03100
C1172       C  0.78383606  0.36269702  0.13193384    -0.04800
C1173       C  0.76695088  0.40276051  0.12193222    -0.01900
C1174       C  0.73608269  0.40006019  0.12175521     0.03100
C1175       C  0.72458868  0.26926008  0.14623429     0.37700
C1176       C  0.78116451  0.44789334  0.11314661     0.37700
C1177       C  0.71888745  0.44323841  0.11387925     0.36100
C1178       C  0.78683114  0.27611085  0.14913935     0.36100
N1179       N  0.70540526  0.47808069  0.10777159    -0.38700
N1180       N  0.80043754  0.24232663  0.15655794    -0.38700
N1181       N  0.79227717  0.48405775  0.10606417    -0.38100
N1182       N  0.71307353  0.23241751  0.15167749    -0.38100
C1183       C  0.62887519  0.25715186  0.22509202    -0.04800
C1184       C  0.60241551  0.25488297  0.23914652    -0.01900
C1185       C  0.60248715  0.23951282  0.26552467     0.03100
C1186       C  0.62907305  0.22589567  0.27805689    -0.04800
C1187       C  0.65557130  0.22908247  0.26395599    -0.01900
C1188       C  0.65539047  0.24391983  0.23763590     0.03100
C1189       C  0.57521381  0.27008280  0.22671945     0.37700
C1190       C  0.68341763  0.21954810  0.27682041     0.37700
C1191       C  0.68271608  0.24513752  0.22334839     0.36100
C1192       C  0.57510635  0.23760719  0.27964072     0.36100
N1193       N  0.70456643  0.24599426  0.21207521    -0.38700
N1194       N  0.55328391  0.23643388  0.29096006    -0.38700
N1195       N  0.70564080  0.21230275  0.28708114    -0.38100
N1196       N  0.55355267  0.28232165  0.21677066    -0.38100
C1197       C  0.28428938  0.86763839  0.36353589    -0.04800
C1198       C  0.26809472  0.89477705  0.34440083    -0.01900
C1199       C  0.23731685  0.89869389  0.34583041     0.03100
C1200       C  0.22167173  0.87337986  0.36543278    -0.04800
C1201       C  0.23767699  0.84810191  0.38512301    -0.01900
C1202       C  0.26864687  0.84510416  0.38418285     0.03100
C1203       C  0.28269965  0.91967213  0.32303339     0.37700
C1204       C  0.22252173  0.82427926  0.40638124     0.37700
C1205       C  0.28403882  0.81669321  0.40409197     0.36100
C1206       C  0.22182856  0.93082012  0.32748251     0.36100
N1207       N  0.29609154  0.79399164  0.42007366    -0.38700
N1208       N  0.20955448  0.95663092  0.31297228    -0.38700
N1209       N  0.21094638  0.80555095  0.42372729    -0.38100
N1210       N  0.29410949  0.93966667  0.30594783    -0.38100
C1211       C  0.53492668  0.74153982  0.38444487    -0.04800
C1212       C  0.52121399  0.78336650  0.39646096    -0.01900
C1213       C  0.49040663  0.78785256  0.39686550     0.03100
C1214       C  0.47291387  0.75224148  0.38407242    -0.04800
C1215       C  0.48644321  0.71144940  0.37127816    -0.01900
C1216       C  0.51726451  0.70555066  0.37188765     0.03100
C1217       C  0.53873606  0.82247018  0.40818896     0.37700
C1218       C  0.46849314  0.67408266  0.35861676     0.37700
C1219       C  0.53048264  0.66062272  0.36118026     0.36100
C1220       C  0.47659630  0.82884375  0.41084607     0.36100
N1221       N  0.54079506  0.62435819  0.35287185    -0.38700
N1222       N  0.46549834  0.86113803  0.42221826    -0.38700
N1223       N  0.45416412  0.64425149  0.34854775    -0.38100
N1224       N  0.55264261  0.85380007  0.41746012    -0.38100
C1225       C  0.37953903  0.61371846  0.37496934    -0.04800
C1226       C  0.39921714  0.58137581  0.38826067    -0.01900
C1227       C  0.39646105  0.52903543  0.38617341     0.03100
C1228       C  0.37401124  0.50806630  0.37073565    -0.04800
C1229       C  0.35433570  0.54046807  0.35738502    -0.01900
C1230       C  0.35724042  0.59292808  0.35934771     0.03100
C1231       C  0.42294872  0.60186460  0.40372833     0.37700
C1232       C  0.33013750  0.52001667  0.34253642     0.37700
C1233       C  0.33652824  0.62546935  0.34603524     0.36100
C1234       C  0.41736174  0.49692244  0.39952355     0.36100
N1235       N  0.32008734  0.65146584  0.33534813    -0.38700
N1236       N  0.43404450  0.47153915  0.41029253    -0.38700
N1237       N  0.31078548  0.50370409  0.33077450    -0.38100
N1238       N  0.44187266  0.61807251  0.41607100    -0.38100
C1239       C  0.38125798  0.11410854  0.38130845    -0.04800
C1240       C  0.35492322  0.09271272  0.37244591    -0.01900
C1241       C  0.35255299  0.04039881  0.36990043     0.03100
C1242       C  0.37663306  0.00886040  0.37574858    -0.04800
C1243       C  0.40255036  0.03003324  0.38578985    -0.01900
C1244       C  0.40483690  0.08242817  0.38864632     0.03100
C1245       C  0.32958782  0.12433959  0.36744073     0.37700
C1246       C  0.42700757  0.99794347  0.39294655     0.37700
C1247       C  0.43163677  0.10369070  0.39885939     0.36100
C1248       C  0.32452736  0.01905921  0.36313698     0.36100
N1249       N  0.45296286  0.12057815  0.40715546    -0.38700
N1250       N  0.30167773  0.00317981  0.35838171    -0.38700
N1251       N  0.44646627  0.97231795  0.39877735    -0.38100
N1252       N  0.30922657  0.14933231  0.36371902    -0.38100
C1253       C  0.28278614  0.35646395  0.37083649    -0.04800
C1254       C  0.26694087  0.31698414  0.35957220    -0.01900
C1255       C  0.23623832  0.31653246  0.36116026     0.03100
C1256       C  0.22104769  0.35684907  0.37294220    -0.04800
C1257       C  0.23700524  0.39481960  0.38566758    -0.01900
C1258       C  0.26790264  0.39438215  0.38474443     0.03100
C1259       C  0.28225677  0.27732964  0.34580217     0.37700
C1260       C  0.22188500  0.43576815  0.39848906     0.37700
C1261       C  0.28432115  0.43457572  0.39670257     0.36100
C1262       C  0.22021589  0.27433851  0.35069415     0.36100
N1263       N  0.29746206  0.46664148  0.40617313    -0.38700
N1264       N  0.20741065  0.24063322  0.34250544    -0.38700
N1265       N  0.21030669  0.46879772  0.40887191    -0.38100
N1266       N  0.29453099  0.24610187  0.33458698    -0.38100
C1267       C  0.53421747  0.24534169  0.38125384    -0.04800
C1268       C  0.52105696  0.28726904  0.39356458    -0.01900
C1269       C  0.49046734  0.29393576  0.39296402     0.03100
C1270       C  0.47258255  0.25943289  0.37982494    -0.04800
C1271       C  0.48570783  0.22007064  0.36555547    -0.01900
C1272       C  0.51642316  0.21266368  0.36648870     0.03100
C1273       C  0.53890729  0.32402702  0.40689432     0.37700
C1274       C  0.46750428  0.18575465  0.35094278     0.37700
C1275       C  0.52929934  0.16960458  0.35360634     0.36100
C1276       C  0.47723762  0.33669203  0.40583877     0.36100
N1277       N  0.53937841  0.13502221  0.34336276    -0.38700
N1278       N  0.46656311  0.37079171  0.41599513    -0.38700
N1279       N  0.45296072  0.15854161  0.33920906    -0.38100
N1280       N  0.55303016  0.35332032  0.41761624    -0.38100
C1281       C  0.28526424  0.62511287  0.13272315    -0.04800
C1282       C  0.26850426  0.66129986  0.14609583    -0.01900
C1283       C  0.23768551  0.65814452  0.14669449     0.03100
C1284       C  0.22294277  0.61820862  0.13424890    -0.04800
C1285       C  0.23971676  0.58334072  0.11964782    -0.01900
C1286       C  0.27070140  0.58702235  0.11877735     0.03100
C1287       C  0.28307337  0.70256213  0.15900645     0.37700
C1288       C  0.22543521  0.54219860  0.10651540     0.37700
C1289       C  0.28772378  0.55035859  0.10439823     0.36100
C1290       C  0.22124497  0.69719053  0.15976688     0.36100
N1291       N  0.30141141  0.52127168  0.09290574    -0.38700
N1292       N  0.20860967  0.72888218  0.17024152    -0.38700
N1293       N  0.21430872  0.50914892  0.09596208    -0.38100
N1294       N  0.29469160  0.73551428  0.16921352    -0.38100
C1295       C  0.47396299  0.74157190  0.11968154    -0.04800
C1296       C  0.48603313  0.78740015  0.11124046    -0.01900
C1297       C  0.51648208  0.79567761  0.11300587     0.03100
C1298       C  0.53533374  0.75826721  0.12292709    -0.04800
C1299       C  0.52322663  0.71363900  0.13262796    -0.01900
C1300       C  0.49270048  0.70530403  0.13104094     0.03100
C1301       C  0.46717848  0.82644541  0.10076092     0.37700
C1302       C  0.54236866  0.67500536  0.14298146     0.37700
C1303       C  0.48092254  0.65798072  0.13956165     0.36100
C1304       C  0.52850374  0.84309221  0.10486619     0.36100
N1305       N  0.47163149  0.62006694  0.14626377    -0.38700
N1306       N  0.53805563  0.88112958  0.09868369    -0.38700
N1307       N  0.55752471  0.64399629  0.15124007    -0.38100
N1308       N  0.45227507  0.85768820  0.09234085    -0.38100
C1309       C  0.38376949  0.72579742  0.22371731    -0.04800
C1310       C  0.38779052  0.69280616  0.24492805    -0.01900
C1311       C  0.38828835  0.71114311  0.27074286     0.03100
C1312       C  0.38500752  0.76299155  0.27569677    -0.04800
C1313       C  0.38255606  0.79613567  0.25422369    -0.01900
C1314       C  0.38137294  0.77755806  0.22851669     0.03100
C1315       C  0.39149330  0.63962089  0.24021391     0.37700
C1316       C  0.38156203  0.84981505  0.25834448     0.37700
C1317       C  0.37565934  0.81176946  0.20720562     0.36100
C1318       C  0.39126241  0.67590977  0.29200512     0.36100
N1319       N  0.37062290  0.83947081  0.19049947    -0.38700
N1320       N  0.39382724  0.64708821  0.30862021    -0.38700
N1321       N  0.38076984  0.89261683  0.26152701    -0.38100
N1322       N  0.39442202  0.59722171  0.23649775    -0.38100
C1323       C  0.38003971  0.97687535  0.12795492    -0.04800
C1324       C  0.40153079  0.94807875  0.14107546    -0.01900
C1325       C  0.40159835  0.89547030  0.13903988     0.03100
C1326       C  0.38043191  0.87117120  0.12345803    -0.04800
C1327       C  0.35938606  0.90015880  0.10981589    -0.01900
C1328       C  0.35918852  0.95272440  0.11204759     0.03100
C1329       C  0.42448944  0.97282177  0.15567876     0.37700
C1330       C  0.33735912  0.87582929  0.09393975     0.37700
C1331       C  0.33701632  0.98184573  0.09840988     0.36100
C1332       C  0.42418722  0.86661167  0.15227873     0.36100
N1333       N  0.31942653  0.00512991  0.08747114    -0.38700
N1334       N  0.44220188  0.84372471  0.16289576    -0.38700
N1335       N  0.31981182  0.85642216  0.08126133    -0.38100
N1336       N  0.44293608  0.99267152  0.16708759    -0.38100
C1337       C  0.38222469  0.37094941  0.12347465    -0.04800
C1338       C  0.40464757  0.40216707  0.11390755    -0.01900
C1339       C  0.40219964  0.45467997  0.11611059     0.03100
C1340       C  0.37741553  0.47664821  0.12800648    -0.04800
C1341       C  0.35495946  0.44549404  0.13746406    -0.01900
C1342       C  0.35717952  0.39304285  0.13488980     0.03100
C1343       C  0.43066909  0.38038842  0.10222086     0.37700
C1344       C  0.32908924  0.46741955  0.14933435     0.37700
C1345       C  0.33293649  0.36198175  0.14281946     0.36100
C1346       C  0.42581005  0.48602858  0.10703675     0.36100
N1347       N  0.31355182  0.33719507  0.14899695    -0.38700
N1348       N  0.44461773  0.51110777  0.09985106    -0.38700
N1349       N  0.30850875  0.48489252  0.15887873    -0.38100
N1350       N  0.45143005  0.36319362  0.09284672    -0.38100
C1351       C  0.22339572  0.10462297  0.13264585    -0.04800
C1352       C  0.24053159  0.06779246  0.14529159    -0.01900
C1353       C  0.27139200  0.07072792  0.14523680     0.03100
C1354       C  0.28553668  0.11204627  0.13368307    -0.04800
C1355       C  0.26838613  0.14749805  0.11983239    -0.01900
C1356       C  0.23751823  0.14321075  0.11892476     0.03100
C1357       C  0.22633342  0.02633193  0.15811803     0.37700
C1358       C  0.28220063  0.18979734  0.10748027     0.37700
C1359       C  0.22021053  0.17970997  0.10463346     0.36100
C1360       C  0.28858768  0.03004703  0.15627132     0.36100
N1361       N  0.20643195  0.20861240  0.09305696    -0.38700
N1362       N  0.30230555  0.99737994  0.16480624    -0.38700
N1363       N  0.29305851  0.22370883  0.09761597    -0.38100
N1364       N  0.21497654  0.99330742  0.16834363    -0.38100
C1365       C  0.47426465  0.22624165  0.12321776    -0.04800
C1366       C  0.49287495  0.19056822  0.11151480    -0.01900
C1367       C  0.52332873  0.19844355  0.11064046     0.03100
C1368       C  0.53560617  0.24208959  0.12176420    -0.04800
C1369       C  0.51717094  0.27551022  0.13558408    -0.01900
C1370       C  0.48658961  0.26764300  0.13621824     0.03100
C1371       C  0.48067196  0.14489200  0.10102886     0.37700
C1372       C  0.52929978  0.31924954  0.14816100     0.37700
C1373       C  0.46764320  0.30335448  0.14931180     0.36100
C1374       C  0.54203671  0.16097191  0.09854933     0.36100
N1375       N  0.45246100  0.33171648  0.15977095    -0.38700
N1376       N  0.55696222  0.13119872  0.08887464    -0.38700
N1377       N  0.53882168  0.35415330  0.15833359    -0.38100
N1378       N  0.47104274  0.10803769  0.09308744    -0.38100
C1379       C  0.37786872  0.22304344  0.22519866    -0.04800
C1380       C  0.37967724  0.18867209  0.24613192    -0.01900
C1381       C  0.37916242  0.20558888  0.27225202     0.03100
C1382       C  0.37645566  0.25716862  0.27788492    -0.04800
C1383       C  0.37570185  0.29161218  0.25692974    -0.01900
C1384       C  0.37660609  0.27470832  0.23084720     0.03100
C1385       C  0.38282195  0.13560529  0.24087465     0.37700
C1386       C  0.37468481  0.34495369  0.26208923     0.37700
C1387       C  0.37556954  0.31089828  0.20989405     0.36100
C1388       C  0.38072098  0.16947590  0.29324813     0.36100
N1389       N  0.37494785  0.34026617  0.19341522    -0.38700
N1390       N  0.38212929  0.14050812  0.30990361    -0.38700
N1391       N  0.37385240  0.38747782  0.26615982    -0.38100
N1392       N  0.38537423  0.09328014  0.23674482    -0.38100
C1393       C  0.12615702  0.87338437  0.47293176    -0.04800
C1394       C  0.09979097  0.86209012  0.48581461    -0.01900
C1395       C  0.09827036  0.86394810  0.51319908     0.03100
C1396       C  0.12310804  0.87720629  0.52806238    -0.04800
C1397       C  0.15030610  0.88283498  0.51535183    -0.01900
C1398       C  0.15182924  0.88083795  0.48782492     0.03100
C1399       C  0.07383124  0.85022045  0.47072123     0.37700
C1400       C  0.17625508  0.89476468  0.53039501     0.37700
C1401       C  0.17930636  0.89056189  0.47486003     0.36100
C1402       C  0.07086063  0.85303507  0.52601202     0.36100
N1403       N  0.20127701  0.89835300  0.46458233    -0.38700
N1404       N  0.04887195  0.84400370  0.53595089    -0.38700
N1405       N  0.19691114  0.90432617  0.54245570    -0.38100
N1406       N  0.05318523  0.84087034  0.45860480    -0.38100
C1407       C  0.11751052  0.37804273  0.52863413    -0.04800
C1408       C  0.14441584  0.37230755  0.51536980    -0.01900
C1409       C  0.14491872  0.36951173  0.48782041     0.03100
C1410       C  0.11864030  0.37456162  0.47333356    -0.04800
C1411       C  0.09164595  0.37491540  0.48676350    -0.01900
C1412       C  0.09109818  0.37600886  0.51418233     0.03100
C1413       C  0.17175608  0.37381044  0.52975654     0.37700
C1414       C  0.06419989  0.37548083  0.47239144     0.37700
C1415       C  0.06311818  0.37661450  0.52751892     0.36100
C1416       C  0.17268183  0.36472575  0.47444494     0.36100
N1417       N  0.04085097  0.37730639  0.53816680    -0.38700
N1418       N  0.19477963  0.36045749  0.46371516    -0.38700
N1419       N  0.04229176  0.37627300  0.46101033    -0.38100
N1420       N  0.19361488  0.37536242  0.54116923    -0.38100
C1421       C  0.12217327  0.62169858  0.62452619    -0.04800
C1422       C  0.10583778  0.64604916  0.64423894    -0.01900
C1423       C  0.10564375  0.69862355  0.64604074     0.03100
C1424       C  0.12266926  0.72758041  0.62886510    -0.04800
C1425       C  0.13927451  0.70332395  0.60935508    -0.01900
C1426       C  0.13895702  0.65078340  0.60714074     0.03100
C1427       C  0.08821202  0.61744534  0.66223157     0.37700
C1428       C  0.15762283  0.73212920  0.59203587     0.37700
C1429       C  0.15675791  0.62674708  0.58732204     0.36100
C1430       C  0.08678251  0.72294807  0.66498001     0.36100
N1431       N  0.17090049  0.60772967  0.57145243    -0.38700
N1432       N  0.07162744  0.74224547  0.67999949    -0.38700
N1433       N  0.17229761  0.75506374  0.57827635    -0.38100
N1434       N  0.07418092  0.59483526  0.67665664    -0.38100
C1435       C  0.12035207  0.22709214  0.62760258    -0.04800
C1436       C  0.14235054  0.19604054  0.63868413    -0.01900
C1437       C  0.14090889  0.14361306  0.63614908     0.03100
C1438       C  0.11722161  0.12140303  0.62286977    -0.04800
C1439       C  0.09540070  0.15245108  0.61148021    -0.01900
C1440       C  0.09709802  0.20495551  0.61364683     0.03100
C1441       C  0.16721251  0.21809247  0.65197479     0.37700
C1442       C  0.07069417  0.13047134  0.59790552     0.37700
C1443       C  0.07440768  0.23580345  0.60189616     0.36100
C1444       C  0.16466839  0.11279511  0.64615766     0.36100
N1445       N  0.05617868  0.25962018  0.59217575    -0.38700
N1446       N  0.18373912  0.08845710  0.65410448    -0.38700
N1447       N  0.05104859  0.11295275  0.58704300    -0.38100
N1448       N  0.18695513  0.23583503  0.66258599    -0.38100
C1449       C  0.12732177  0.60266182  0.97469845    -0.04800
C1450       C  0.10050430  0.61007486  0.98776915    -0.01900
C1451       C  0.09959039  0.61124035  0.01518296     0.03100
C1452       C  0.12564697  0.60653204  0.03004651    -0.04800
C1453       C  0.15283151  0.60651692  0.01687156    -0.01900
C1454       C  0.15365620  0.60413801  0.98925792     0.03100
C1455       C  0.07352017  0.61503866  0.97290875     0.37700
C1456       C  0.17992306  0.60488747  0.03164531     0.37700
C1457       C  0.18150950  0.59931875  0.97606624     0.36100
C1458       C  0.07141731  0.61521387  0.02794297     0.36100
N1459       N  0.20379611  0.59545243  0.96561226    -0.38700
N1460       N  0.04865327  0.61794494  0.03761775    -0.38700
N1461       N  0.20153735  0.60374650  0.04345719    -0.38100
N1462       N  0.05203983  0.61903464  0.96105818    -0.38100
C1463       C  0.11540137  0.51366948  0.77734152    -0.04800
C1464       C  0.12298700  0.54513311  0.75615122    -0.01900
C1465       C  0.12340030  0.52650521  0.73039509     0.03100
C1466       C  0.11398847  0.47757835  0.72501522    -0.04800
C1467       C  0.10366851  0.44770696  0.74561394    -0.01900
C1468       C  0.10484455  0.46505532  0.77163988     0.03100
C1469       C  0.12970058  0.59740144  0.76048208     0.37700
C1470       C  0.09163136  0.39885312  0.73992958     0.37700
C1471       C  0.09584694  0.43179743  0.79232295     0.36100
C1472       C  0.13547293  0.55673010  0.70971523     0.36100
N1473       N  0.08856896  0.40499241  0.80866483    -0.38700
N1474       N  0.14562459  0.58075696  0.69344383    -0.38700
N1475       N  0.08185131  0.36008470  0.73531551    -0.38100
N1476       N  0.13481349  0.63919262  0.76384694    -0.38100
C1477       C  0.12183521  0.10601428  0.97339162    -0.04800
C1478       C  0.14920728  0.10163503  0.98626391    -0.01900
C1479       C  0.15063458  0.10190381  0.01382886     0.03100
C1480       C  0.12470029  0.10602481  0.02860608    -0.04800
C1481       C  0.09807398  0.11702265  0.01569758    -0.01900
C1482       C  0.09657946  0.11663589  0.98827688     0.03100
C1483       C  0.17556553  0.09238704  0.97133369     0.37700
C1484       C  0.07197984  0.12807994  0.03069416     0.37700
C1485       C  0.06871657  0.12573035  0.97542637     0.36100
C1486       C  0.17850260  0.09440316  0.02691007     0.36100
N1487       N  0.04638364  0.13287886  0.96535537    -0.38700
N1488       N  0.20073335  0.08866434  0.03740292    -0.38700
N1489       N  0.05109691  0.13729047  0.04247459    -0.38100
N1490       N  0.19658559  0.08484759  0.95942244    -0.38100
C1491       C  0.12228552  0.85992396  0.88239454    -0.04800
C1492       C  0.09986355  0.82848456  0.89169336    -0.01900
C1493       C  0.10267068  0.77606793  0.88960285     0.03100
C1494       C  0.12755785  0.75466684  0.87767965    -0.04800
C1495       C  0.15040352  0.78591121  0.86920976    -0.01900
C1496       C  0.14789273  0.83827963  0.87179359     0.03100
C1497       C  0.07345227  0.84994960  0.90282174     0.37700
C1498       C  0.17704818  0.76402126  0.85874385     0.37700
C1499       C  0.17231768  0.86971503  0.86480640     0.36100
C1500       C  0.07963155  0.74415741  0.89925499     0.36100
N1501       N  0.19192917  0.89473590  0.85952895    -0.38700
N1502       N  0.06140730  0.71857766  0.90710991    -0.38700
N1503       N  0.19835942  0.74660001  0.85052195    -0.38100
N1504       N  0.05235147  0.86693596  0.91168507    -0.38100
C1505       C  0.12495345  0.25440116  0.86981736    -0.04800
C1506       C  0.14552139  0.28482877  0.85675690    -0.01900
C1507       C  0.14403228  0.33749565  0.85888019     0.03100
C1508       C  0.12262423  0.36030255  0.87472659    -0.04800
C1509       C  0.10164988  0.33012859  0.88722217    -0.01900
C1510       C  0.10277469  0.27757542  0.88476617     0.03100
C1511       C  0.16906697  0.26201403  0.84191014     0.37700
C1512       C  0.07804051  0.35338375  0.90183382     0.37700
C1513       C  0.08035719  0.24764632  0.89691443     0.36100
C1514       C  0.16490899  0.36815090  0.84513589     0.36100
N1515       N  0.06232247  0.22410726  0.90661067    -0.38700
N1516       N  0.18141572  0.39261891  0.83400012    -0.38700
N1517       N  0.05912451  0.37191546  0.91334476    -0.38100
N1518       N  0.18786294  0.24374318  0.83013261    -0.38100
C1519       C  0.12372291  0.97216371  0.72479678    -0.04800
C1520       C  0.12222727  0.02351808  0.73113048    -0.01900
C1521       C  0.12268171  0.03912816  0.75740675     0.03100
C1522       C  0.12422131  0.00365327  0.77782167    -0.04800
C1523       C  0.12432815  0.95223545  0.77157752    -0.01900
C1524       C  0.12425554  0.93659110  0.74525724     0.03100
C1525       C  0.12089860  0.06078265  0.71069840     0.37700
C1526       C  0.12534483  0.91520089  0.79216102     0.37700
C1527       C  0.12403519  0.88354944  0.73933310     0.36100
C1528       C  0.12098544  0.09211737  0.76338272     0.36100
N1529       N  0.12383330  0.84124171  0.73466218    -0.38700
N1530       N  0.11966882  0.13434678  0.76814368    -0.38700
N1531       N  0.12603144  0.88554369  0.80851344    -0.38100
N1532       N  0.11959602  0.09087626  0.69459960    -0.38100
C1533       C  0.88139314  0.87485013  0.97008913    -0.04800
C1534       C  0.90779603  0.86765467  0.98407737    -0.01900
C1535       C  0.90787860  0.86850855  0.01157279     0.03100
C1536       C  0.88150138  0.87587408  0.02545508    -0.04800
C1537       C  0.85475134  0.87700807  0.01151581    -0.01900
C1538       C  0.85470916  0.87715879  0.98394066     0.03100
C1539       C  0.93502337  0.85995385  0.97013154     0.37700
C1540       C  0.82733314  0.88160919  0.02543292     0.37700
C1541       C  0.82735943  0.88411326  0.96992344     0.36100
C1542       C  0.93529080  0.86252324  0.02563161     0.36100
N1543       N  0.80564279  0.88994142  0.95862131    -0.38700
N1544       N  0.95714782  0.85770840  0.03684221    -0.38700
N1545       N  0.80540335  0.88503973  0.03649503    -0.38100
N1546       N  0.95670716  0.85358979  0.95900379    -0.38100
C1547       C  0.02809210  0.00062544  0.87788526    -0.04800
C1548       C  0.00957114  0.03868761  0.88733766    -0.01900
C1549       C  0.97894178  0.03323569  0.88627181     0.03100
C1550       C  0.96637083  0.98863255  0.87660626    -0.04800
C1551       C  0.98492875  0.95224990  0.86509197    -0.01900
C1552       C  0.01571238  0.95849877  0.86554260     0.03100
C1553       C  0.02220945  0.08400719  0.89785530     0.37700
C1554       C  0.97258230  0.90756666  0.85364813     0.37700
C1555       C  0.03466914  0.92085830  0.85403057     0.36100
C1556       C  0.96050111  0.07474483  0.89425578     0.36100
N1557       N  0.04976022  0.89094350  0.84468434    -0.38700
N1558       N  0.94640178  0.10882858  0.90035499    -0.38700
N1559       N  0.96275763  0.87197308  0.84440114    -0.38100
N1560       N  0.03247267  0.12011571  0.90607530    -0.38100
C1561       C  0.87098237  0.37539889  0.97145116    -0.04800
C1562       C  0.84557516  0.38447034  0.98639944    -0.01900
C1563       C  0.84699024  0.38209735  0.01391777     0.03100
C1564       C  0.87390588  0.37133186  0.02649002    -0.04800
C1565       C  0.89809586  0.35595262  0.01140221    -0.01900
C1566       C  0.89671315  0.35826752  0.98401677     0.03100
C1567       C  0.81871502  0.40044883  0.97366574     0.37700
C1568       C  0.92460412  0.33835097  0.02415090     0.37700
C1569       C  0.92217496  0.34461084  0.96873366     0.36100
C1570       C  0.82132279  0.39417343  0.02927917     0.36100
N1571       N  0.94244581  0.33357665  0.95651630    -0.38700
N1572       N  0.80085378  0.40351868  0.04161020    -0.38700
N1573       N  0.94567380  0.32386952  0.03429122    -0.38100
N1574       N  0.79728666  0.41335502  0.96354183    -0.38100
C1575       C  0.87420876  0.61750779  0.87433935    -0.04800
C1576       C  0.85031457  0.63874225  0.86081522    -0.01900
C1577       C  0.84825872  0.69102810  0.85776043     0.03100
C1578       C  0.86991267  0.72256635  0.86872452    -0.04800
C1579       C  0.89385029  0.70082491  0.88232318    -0.01900
C1580       C  0.89621554  0.64851844  0.88463881     0.03100
C1581       C  0.82722344  0.60686540  0.85096964     0.37700
C1582       C  0.91638126  0.73189722  0.89379218     0.37700
C1583       C  0.92179444  0.62633478  0.89708329     0.36100
C1584       C  0.82308493  0.71214553  0.84426224     0.36100
N1585       N  0.94223751  0.60852019  0.90681283    -0.38700
N1586       N  0.80300459  0.72887614  0.83347249    -0.38700
N1587       N  0.93423726  0.75648695  0.90323545    -0.38100
N1588       N  0.80873486  0.58145925  0.84326552    -0.38100
C1589       C  0.86763128  0.22325459  0.87118335    -0.04800
C1590       C  0.87687235  0.20178369  0.89506988    -0.01900
C1591       C  0.87706760  0.14946679  0.89856396     0.03100
C1592       C  0.86909189  0.11671284  0.87786581    -0.04800
C1593       C  0.85899455  0.13807364  0.85422959    -0.01900
C1594       C  0.85794360  0.19054672  0.85100692     0.03100
C1595       C  0.88700432  0.23293829  0.91638321     0.37700
C1596       C  0.84875710  0.10645073  0.83308856     0.37700
C1597       C  0.84605964  0.21005869  0.82675091     0.36100
C1598       C  0.88626044  0.13023276  0.92378403     0.36100
N1599       N  0.83664336  0.22516374  0.80732846    -0.38700
N1600       N  0.89362116  0.11532804  0.94392259    -0.38700
N1601       N  0.84065744  0.08159773  0.81611495    -0.38100
N1602       N  0.89501986  0.25719455  0.93359687    -0.38100
C1603       C  0.96823267  0.48206895  0.88697989    -0.04800
C1604       C  0.98446986  0.47666798  0.91043222    -0.01900
C1605       C  0.01483946  0.48630432  0.91127990     0.03100
C1606       C  0.03069439  0.49711132  0.88813214    -0.04800
C1607       C  0.01441822  0.50106092  0.86446835    -0.01900
C1608       C  0.98352431  0.49567262  0.86418337     0.03100
C1609       C  0.97022241  0.46055225  0.93418702     0.37700
C1610       C  0.02893938  0.51018669  0.83990246     0.37700
C1611       C  0.96749777  0.50668281  0.84039797     0.36100
C1612       C  0.02913042  0.48572808  0.93662125     0.36100
N1613       N  0.95495747  0.51607826  0.82139642    -0.38700
N1614       N  0.04022344  0.48524704  0.95691160    -0.38700
N1615       N  0.04002467  0.51715906  0.82005150    -0.38100
N1616       N  0.95916012  0.44809629  0.95328791    -0.38100
C1617       C  0.87490308  0.60248139  0.52668927    -0.04800
C1618       C  0.84940156  0.59635169  0.51141039    -0.01900
C1619       C  0.85119812  0.59627778  0.48388394     0.03100
C1620       C  0.87854873  0.60217987  0.47148653    -0.04800
C1621       C  0.90323965  0.61448105  0.48677437    -0.01900
C1622       C  0.90148331  0.61431132  0.51421807     0.03100
C1623       C  0.82180045  0.58568680  0.52394282     0.37700
C1624       C  0.93057544  0.62708779  0.47426043     0.37700
C1625       C  0.92733757  0.62487884  0.52970674     0.36100
C1626       C  0.82527310  0.58629974  0.46842594     0.36100
N1627       N  0.94795765  0.63328280  0.54205550    -0.38700
N1628       N  0.80461899  0.57841399  0.45602922    -0.38700
N1629       N  0.95239846  0.63768475  0.46445665    -0.38100
N1630       N  0.79979675  0.57699376  0.53395386    -0.38100
C1631       C  0.96466785  0.49476601  0.61765744    -0.04800
C1632       C  0.97859305  0.44749913  0.61631983    -0.01900
C1633       C  0.00937248  0.44390099  0.61709705     0.03100
C1634       C  0.02636786  0.48752803  0.61799078    -0.04800
C1635       C  0.01247879  0.53481443  0.61870671    -0.01900
C1636       C  0.98168202  0.53837954  0.61918773     0.03100
C1637       C  0.96142008  0.40258921  0.61314944     0.37700
C1638       C  0.02976305  0.57990170  0.61770022     0.37700
C1639       C  0.96746979  0.58705693  0.61980908     0.36100
C1640       C  0.02366133  0.39539509  0.61580828     0.36100
N1641       N  0.95614029  0.62587854  0.62024926    -0.38700
N1642       N  0.03515718  0.35678777  0.61480479    -0.38700
N1643       N  0.04319359  0.61623230  0.61641078    -0.38100
N1644       N  0.94816696  0.36638529  0.61016916    -0.38100
C1645       C  0.87698668  0.50860084  0.72379455    -0.04800
C1646       C  0.87157138  0.45769875  0.72883391    -0.01900
C1647       C  0.87300944  0.43902481  0.75453426     0.03100
C1648       C  0.87819717  0.47156837  0.77589570    -0.04800
C1649       C  0.88361240  0.52263130  0.77079522    -0.01900
C1650       C  0.88352327  0.54072159  0.74492752     0.03100
C1651       C  0.86202194  0.42511156  0.70795570     0.37700
C1652       C  0.88772296  0.55759354  0.79206527     0.37700
C1653       C  0.89006675  0.59285265  0.74010448     0.36100
C1654       C  0.86917457  0.38587228  0.75880913     0.36100
N1655       N  0.89527715  0.63441854  0.73627751    -0.38700
N1656       N  0.86612696  0.34350178  0.76218295    -0.38700
N1657       N  0.89088815  0.58608206  0.80877875    -0.38100
N1658       N  0.85368934  0.39889467  0.69166760    -0.38100
C1659       C  0.87438389  0.10719405  0.52702477    -0.04800
C1660       C  0.90084474  0.11701482  0.51395903    -0.01900
C1661       C  0.90173158  0.11692866  0.48656870     0.03100
C1662       C  0.87631864  0.10622739  0.47194159    -0.04800
C1663       C  0.84911945  0.10340903  0.48489478    -0.01900
C1664       C  0.84816330  0.10384457  0.51244437     0.03100
C1665       C  0.92750118  0.12551449  0.52872901     0.37700
C1666       C  0.82239326  0.09652331  0.47006059     0.37700
C1667       C  0.82056574  0.09659923  0.52567644     0.36100
C1668       C  0.92902961  0.12726662  0.47346463     0.36100
N1669       N  0.79856142  0.09085325  0.53627363    -0.38700
N1670       N  0.95096564  0.13609563  0.46340224    -0.38700
N1671       N  0.80099525  0.09127875  0.45828240    -0.38100
N1672       N  0.94880513  0.13213642  0.54044197    -0.38100
C1673       C  0.87053882  0.86201401  0.62010574    -0.04800
C1674       C  0.88371385  0.83864876  0.64193298    -0.01900
C1675       C  0.88320600  0.78621982  0.64455648     0.03100
C1676       C  0.87052103  0.75593688  0.62491588    -0.04800
C1677       C  0.85901286  0.77907284  0.60232366    -0.01900
C1678       C  0.85802220  0.83169862  0.60036425     0.03100
C1679       C  0.89936303  0.86810058  0.66116527     0.37700
C1680       C  0.84862563  0.74915375  0.58067415     0.37700
C1681       C  0.84347527  0.85432255  0.57807706     0.36100
C1682       C  0.89725798  0.76347797  0.66706151     0.36100
N1683       N  0.83184186  0.87209726  0.56027179    -0.38700
N1684       N  0.90843733  0.74549326  0.68503213    -0.38700
N1685       N  0.84107834  0.72589056  0.56291988    -0.38100
N1686       N  0.91198825  0.89154387  0.67638754    -0.38100
C1687       C  0.87001328  0.25607572  0.62740881    -0.04800
C1688       C  0.88875149  0.28484929  0.64330555    -0.01900
C1689       C  0.88813862  0.33740881  0.64182799     0.03100
C1690       C  0.86924683  0.36172548  0.62391649    -0.04800
C1691       C  0.85002945  0.33290522  0.60842458    -0.01900
C1692       C  0.85044113  0.28031871  0.61013448     0.03100
C1693       C  0.90938073  0.26025206  0.66072699     0.37700
C1694       C  0.82884715  0.35745428  0.59152307     0.37700
C1695       C  0.82982380  0.25131910  0.59488769     0.36100
C1696       C  0.90760967  0.36611629  0.65837634     0.36100
N1697       N  0.81335254  0.22817534  0.58279346    -0.38700
N1698       N  0.92304125  0.38884822  0.67171771    -0.38700
N1699       N  0.81185648  0.37708260  0.57817475    -0.38100
N1700       N  0.92583673  0.24057197  0.67456852    -0.38100
C1701       C  0.02636860  0.97794178  0.62249545    -0.04800
C1702       C  0.01326419  0.02056349  0.63401477    -0.01900
C1703       C  0.98252921  0.02747173  0.63294883     0.03100
C1704       C  0.96473817  0.99135893  0.62071987    -0.04800
C1705       C  0.97777157  0.94676133  0.61125087    -0.01900
C1706       C  0.00844290  0.94044134  0.61184383     0.03100
C1707       C  0.03149713  0.05849354  0.64584854     0.37700
C1708       C  0.95956966  0.90693693  0.60113671     0.37700
C1709       C  0.02170009  0.89523098  0.60146328     0.36100
C1710       C  0.96948362  0.07303661  0.64308460     0.36100
N1711       N  0.03239955  0.85915550  0.59333131    -0.38700
N1712       N  0.95918999  0.10954196  0.65112457    -0.38700
N1713       N  0.94506983  0.87506443  0.59320577    -0.38100
N1714       N  0.04597949  0.08876093  0.65537252    -0.38100
C1715       C  0.86887902  0.00616271  0.72209501    -0.04800
C1716       C  0.89554172  0.99890178  0.73570480    -0.01900
C1717       C  0.89545424  0.98332888  0.76202477     0.03100
C1718       C  0.86869059  0.97497284  0.77503173    -0.04800
C1719       C  0.84203320  0.98302480  0.76142230    -0.01900
C1720       C  0.84215573  0.99815861  0.73515926     0.03100
C1721       C  0.92310027  0.00926849  0.72297952     0.37700
C1722       C  0.81419594  0.97713660  0.77454667     0.37700
C1723       C  0.81453873  0.00491092  0.72143547     0.36100
C1724       C  0.92300306  0.97477251  0.77549304     0.36100
N1725       N  0.79262533  0.01056543  0.71041246    -0.38700
N1726       N  0.94491589  0.96796129  0.78634398    -0.38700
N1727       N  0.79191287  0.97253987  0.78484689    -0.38100
N1728       N  0.94510671  0.01772112  0.71290564    -0.38100
C1729       C  0.36764037  0.84227889  0.52751330    -0.04800
C1730       C  0.35947507  0.79901125  0.51357007    -0.01900
C1731       C  0.36000968  0.79874719  0.48619697     0.03100
C1732       C  0.36871531  0.84172366  0.47248302    -0.04800
C1733       C  0.37421973  0.88638089  0.48622091    -0.01900
C1734       C  0.37371742  0.88666397  0.51378885     0.03100
C1735       C  0.35132734  0.75406702  0.52746497     0.37700
C1736       C  0.38224843  0.93092135  0.47203574     0.37700
C1737       C  0.38138688  0.93152660  0.52795102     0.36100
C1738       C  0.35236447  0.75363150  0.47205311     0.36100
N1739       N  0.38759882  0.96745576  0.53915717    -0.38700
N1740       N  0.34627746  0.71776833  0.46072082    -0.38700
N1741       N  0.38863307  0.96632840  0.46056776    -0.38100
N1742       N  0.34481961  0.71822044  0.53849965    -0.38100
C1743       C  0.27838566  0.86175413  0.63270997    -0.04800
C1744       C  0.26360758  0.90775142  0.62869937    -0.01900
C1745       C  0.23270776  0.90973330  0.62764305     0.03100
C1746       C  0.21628364  0.86632169  0.63224705    -0.04800
C1747       C  0.23101206  0.82025547  0.63622645    -0.01900
C1748       C  0.26193628  0.81794456  0.63624068     0.03100
C1749       C  0.27992758  0.95384217  0.62793048     0.37700
C1750       C  0.21430949  0.77521328  0.64055882     0.37700
C1751       C  0.27688980  0.77089275  0.64116431     0.36100
C1752       C  0.21778193  0.95696781  0.62303704     0.36100
N1753       N  0.28887184  0.73347880  0.64531037    -0.38700
N1754       N  0.20590679  0.99460849  0.61920587    -0.38700
N1755       N  0.20103954  0.73925470  0.64409117    -0.38100
N1756       N  0.29229639  0.99133993  0.62804493    -0.38100
C1757       C  0.37009205  0.35925767  0.52915150    -0.04800
C1758       C  0.39591179  0.37553318  0.51685265    -0.01900
C1759       C  0.39780782  0.37621161  0.48943274     0.03100
C1760       C  0.37431988  0.35890453  0.47403673    -0.04800
C1761       C  0.34750672  0.34743732  0.48623533    -0.01900
C1762       C  0.34525568  0.34860081  0.51371961     0.03100
C1763       C  0.42096522  0.39000307  0.53248585     0.37700
C1764       C  0.32304960  0.33001938  0.47070545     0.37700
C1765       C  0.31800523  0.33521086  0.52611319     0.36100
C1766       C  0.42411445  0.39427777  0.47707996     0.36100
N1767       N  0.29615789  0.32486103  0.53594709    -0.38700
N1768       N  0.44509638  0.40948186  0.46751986    -0.38700
N1769       N  0.30364064  0.31573505  0.45830501    -0.38100
N1770       N  0.44100184  0.40144132  0.54491146    -0.38100
C1771       C  0.36969610  0.50880668  0.62868630    -0.04800
C1772       C  0.39712075  0.53174132  0.63207362    -0.01900
C1773       C  0.39973362  0.58400308  0.62943657     0.03100
C1774       C  0.37485044  0.61372239  0.62374404    -0.04800
C1775       C  0.34749258  0.59061709  0.61992368    -0.01900
C1776       C  0.34489449  0.53832076  0.62251207     0.03100
C1777       C  0.42275907  0.50131651  0.63782892     0.37700
C1778       C  0.32208192  0.62060522  0.61293316     0.37700
C1779       C  0.31670864  0.51483433  0.61873093     0.36100
C1780       C  0.42829799  0.60678749  0.63139179     0.36100
N1781       N  0.29419820  0.49625944  0.61558014    -0.38700
N1782       N  0.45131354  0.62426792  0.63264501    -0.38700
N1783       N  0.30181015  0.64436283  0.60715857    -0.38100
N1784       N  0.44319667  0.47696142  0.64233703    -0.38100
C1785       C  0.36918627  0.00822165  0.62898041    -0.04800
C1786       C  0.35538041  0.03167225  0.60747105    -0.01900
C1787       C  0.35467572  0.08431204  0.60544822     0.03100
C1788       C  0.36875240  0.11450109  0.62432638    -0.04800
C1789       C  0.38281770  0.09110916  0.64572340    -0.01900
C1790       C  0.38289672  0.03849367  0.64811185     0.03100
C1791       C  0.34061373  0.00194939  0.58783011     0.37700
C1792       C  0.39813979  0.12088714  0.66502842     0.37700
C1793       C  0.39805718  0.01572044  0.67003292     0.36100
C1794       C  0.33821026  0.10734101  0.58436946     0.36100
N1795       N  0.41008905  0.99786574  0.68760851    -0.38700
N1796       N  0.32494919  0.12559924  0.56762096    -0.38700
N1797       N  0.41029471  0.14456618  0.68045882    -0.38100
N1798       N  0.32860056  0.97832979  0.57229206    -0.38100
C1799       C  0.27454847  0.37023197  0.63652471    -0.04800
C1800       C  0.25814083  0.33886932  0.61977434    -0.01900
C1801       C  0.22711692  0.34091957  0.61977610     0.03100
C1802       C  0.21202612  0.37382851  0.63671987    -0.04800
C1803       C  0.22831795  0.40574249  0.65310978    -0.01900
C1804       C  0.25921071  0.40440436  0.65284790     0.03100
C1805       C  0.27287835  0.30224127  0.60354173     0.37700
C1806       C  0.21327753  0.44058827  0.67028351     0.37700
C1807       C  0.27504290  0.43922305  0.66930976     0.36100
C1808       C  0.21069928  0.30694923  0.60335534     0.36100
N1809       N  0.28758970  0.46695254  0.68247178    -0.38700
N1810       N  0.19754600  0.27982079  0.59032964    -0.38700
N1811       N  0.20133434  0.46814304  0.68408747    -0.38100
N1812       N  0.28431301  0.27262450  0.59058581    -0.38100
C1813       C  0.37897622  0.62681316  0.97235629    -0.04800
C1814       C  0.40619271  0.62383444  0.98549997    -0.01900
C1815       C  0.40745128  0.62531563  0.01290445     0.03100
C1816       C  0.38143320  0.62864102  0.02767557    -0.04800
C1817       C  0.35417359  0.62412428  0.01464738    -0.01900
C1818       C  0.35296219  0.62332249  0.98704250     0.03100
C1819       C  0.43314384  0.62019088  0.97071711     0.37700
C1820       C  0.32721462  0.62383430  0.02943235     0.37700
C1821       C  0.32485101  0.62188906  0.97392175     0.36100
C1822       C  0.43576541  0.62471431  0.02583997     0.36100
N1823       N  0.30230782  0.62030119  0.96363063    -0.38700
N1824       N  0.45833960  0.62457965  0.03613280    -0.38700
N1825       N  0.30569225  0.62342895  0.04121725    -0.38100
N1826       N  0.45460486  0.61719265  0.95892258    -0.38100
C1827       C  0.28127721  0.62326389  0.86403854    -0.04800
C1828       C  0.26470638  0.64516841  0.88433781    -0.01900
C1829       C  0.23387039  0.63996298  0.88487400     0.03100
C1830       C  0.21931957  0.61156130  0.86552788    -0.04800
C1831       C  0.23603729  0.58831157  0.84577558    -0.01900
C1832       C  0.26652801  0.59531375  0.84454429     0.03100
C1833       C  0.27906318  0.67549103  0.90391977     0.37700
C1834       C  0.22201037  0.55566024  0.82694714     0.37700
C1835       C  0.28259802  0.57263859  0.82314947     0.36100
C1836       C  0.21706886  0.66601548  0.90466209     0.36100
N1837       N  0.29532860  0.55444111  0.80611776    -0.38700
N1838       N  0.20365670  0.68696884  0.92037825    -0.38700
N1839       N  0.21093405  0.52943803  0.81200763    -0.38100
N1840       N  0.29035662  0.69988660  0.91955615    -0.38100
C1841       C  0.38137022  0.72862533  0.77641098    -0.04800
C1842       C  0.38978131  0.69655668  0.75576068    -0.01900
C1843       C  0.38835242  0.71296749  0.72968466     0.03100
C1844       C  0.37967147  0.76263435  0.72387463    -0.04800
C1845       C  0.37394190  0.79606860  0.74477944    -0.01900
C1846       C  0.37435572  0.77899726  0.77081521     0.03100
C1847       C  0.40027234  0.64633878  0.76136844     0.37700
C1848       C  0.36778747  0.84847926  0.73964908     0.37700
C1849       C  0.36613168  0.81305891  0.79155283     0.32900
C1850       C  0.39450744  0.67747673  0.70900056     0.36100
N1851       N  0.35933275  0.84087376  0.80773373    -0.38700
N1852       N  0.39942780  0.64870286  0.69273021    -0.38700
N1853       N  0.36289822  0.89020595  0.73546971    -0.38100
N1854       N  0.40875035  0.60642095  0.76589819    -0.38100
C1855       C  0.37575984  0.12709570  0.97326820    -0.04800
C1856       C  0.34950100  0.13124790  0.98763134    -0.01900
C1857       C  0.35034812  0.13100033  0.01522432     0.03100
C1858       C  0.37745449  0.12646720  0.02846284    -0.04800
C1859       C  0.40283703  0.11486576  0.01400280    -0.01900
C1860       C  0.40196931  0.11501351  0.98659174     0.03100
C1861       C  0.32191358  0.13902009  0.97414822     0.37700
C1862       C  0.43015734  0.10363450  0.02730806     0.37700
C1863       C  0.42828352  0.10301645  0.97213102     0.36100
C1864       C  0.32365812  0.13901773  0.02985569     0.36100
N1865       N  0.44946906  0.09284045  0.96101402    -0.38700
N1866       N  0.30234333  0.14523691  0.04154684    -0.38700
N1867       N  0.45209655  0.09442080  0.03760625    -0.38100
N1868       N  0.29988402  0.14491339  0.96334713    -0.38100
C1869       C  0.37000631  0.97784701  0.87399865    -0.04800
C1870       C  0.35081521  0.95505056  0.89185722    -0.01900
C1871       C  0.35032559  0.90247085  0.89427273     0.03100
C1872       C  0.36929797  0.87226288  0.87911001    -0.04800
C1873       C  0.38899450  0.89528700  0.86178952    -0.01900
C1874       C  0.38887477  0.94759219  0.85883369     0.03100
C1875       C  0.33071506  0.98547869  0.90705918     0.37700
C1876       C  0.41065041  0.86550107  0.84796450     0.37700
C1877       C  0.40873889  0.97030001  0.84043083     0.36100
C1878       C  0.32984376  0.87950743  0.91203282     0.36100
N1879       N  0.42440794  0.98836218  0.82560869    -0.38700
N1880       N  0.31353195  0.86123042  0.92622622    -0.38700
N1881       N  0.42798203  0.84182343  0.83701863    -0.38100
N1882       N  0.31470352  0.00971638  0.91919829    -0.38100
C1883       C  0.37606709  0.37208888  0.87792078    -0.04800
C1884       C  0.39944760  0.40319888  0.88563158    -0.01900
C1885       C  0.39720743  0.45563046  0.88287154     0.03100
C1886       C  0.37092864  0.47798075  0.87378870    -0.04800
C1887       C  0.34711474  0.44678695  0.86715071    -0.01900
C1888       C  0.35002456  0.39418030  0.86835696     0.03100
C1889       C  0.42617583  0.38128574  0.89603948     0.37700
C1890       C  0.31877908  0.46833767  0.86094764     0.37700
C1891       C  0.32571798  0.36278997  0.86063634     0.36100
C1892       C  0.42246139  0.48636991  0.88851287     0.36100
N1893       N  0.30640883  0.33774564  0.85434864    -0.38700
N1894       N  0.44263399  0.51090902  0.89284810    -0.38700
N1895       N  0.29560315  0.48396064  0.85663332    -0.38100
N1896       N  0.44745026  0.36399343  0.90452844    -0.38100
C1897       C  0.21680291  0.10759466  0.86969622    -0.04800
C1898       C  0.23388345  0.07097482  0.85698247    -0.01900
C1899       C  0.26463283  0.07455696  0.85680140     0.03100
C1900       C  0.27872846  0.11553220  0.86897687    -0.04800
C1901       C  0.26158338  0.15120071  0.88257637    -0.01900
C1902       C  0.23071267  0.14716489  0.88293666     0.03100
C1903       C  0.21966294  0.02988753  0.84361316     0.37700
C1904       C  0.27540838  0.19383637  0.89476755     0.37700
C1905       C  0.21310487  0.18555776  0.89544023     0.36100
C1906       C  0.28167184  0.03573144  0.84394721     0.36100
N1907       N  0.19895776  0.21624040  0.90525754    -0.38700
N1908       N  0.29515318  0.00485154  0.83357039    -0.38700
N1909       N  0.28632411  0.22804862  0.90444121    -0.38100
N1910       N  0.20823918  0.99740517  0.83283662    -0.38100
C1911       C  0.36825454  0.25805836  0.72461232    -0.04800
C1912       C  0.34173677  0.24784733  0.73750744    -0.01900
C1913       C  0.34191651  0.23203429  0.76366644     0.03100
C1914       C  0.36871793  0.22554789  0.77726845    -0.04800
C1915       C  0.39532321  0.23479100  0.76416540    -0.01900
C1916       C  0.39507917  0.25070619  0.73792201     0.03100
C1917       C  0.31411887  0.25226226  0.72357778     0.37700
C1918       C  0.42306428  0.22676225  0.77741428     0.37700
C1919       C  0.42247905  0.26050674  0.72480084     0.36100
C1920       C  0.31425301  0.22377949  0.77670896     0.36100
N1921       N  0.44433309  0.26815717  0.71429779    -0.38700
N1922       N  0.29218752  0.21715860  0.78706398    -0.38700
N1923       N  0.44518761  0.22040397  0.78799546    -0.38100
N1924       N  0.29214961  0.25560430  0.71240611    -0.38100
C1925       C  0.62984958  0.62801619  0.52903761    -0.04800
C1926       C  0.60334683  0.62017863  0.51550423    -0.01900
C1927       C  0.60277595  0.62038035  0.48808737     0.03100
C1928       C  0.62872138  0.62880998  0.47395086    -0.04800
C1929       C  0.65577186  0.62988005  0.48742265    -0.01900
C1930       C  0.65631385  0.62904049  0.51497554     0.03100
C1931       C  0.57632993  0.61483107  0.52994473     0.37700
C1932       C  0.68278947  0.63640141  0.47315984     0.37700
C1933       C  0.68397851  0.63204012  0.52869741     0.36100
C1934       C  0.57522260  0.61396767  0.47440539     0.36100
N1935       N  0.70642954  0.63362505  0.53912982    -0.38700
N1936       N  0.55326744  0.60887296  0.46345868    -0.38700
N1937       N  0.70436729  0.64172823  0.46182995    -0.38100
N1938       N  0.55484456  0.61059347  0.54153801    -0.38100
C1939       C  0.71564970  0.61744377  0.63801185    -0.04800
C1940       C  0.73126758  0.63913226  0.61717669    -0.01900
C1941       C  0.76199263  0.63260247  0.61509067     0.03100
C1942       C  0.77793074  0.60650770  0.63454060    -0.04800
C1943       C  0.76222107  0.58381076  0.65503406    -0.01900
C1944       C  0.73163902  0.59021551  0.65713740     0.03100
C1945       C  0.71639673  0.67258199  0.59921660     0.37700
C1946       C  0.77739780  0.55260606  0.67399523     0.37700
C1947       C  0.71704978  0.56916972  0.67960881     0.36100
C1948       C  0.77697561  0.65399065  0.59304294     0.36100
N1949       N  0.70564458  0.55267171  0.69768675    -0.38700
N1950       N  0.78832869  0.67070896  0.57502721    -0.38700
N1951       N  0.78938286  0.52781134  0.68915576    -0.38100
N1952       N  0.70502775  0.70031075  0.58510885    -0.38100
C1953       C  0.46992219  0.75471214  0.61676681    -0.04800
C1954       C  0.48686843  0.76997998  0.59527003    -0.01900
C1955       C  0.51731671  0.76055290  0.59456234     0.03100
C1956       C  0.53177264  0.73629970  0.61567198    -0.04800
C1957       C  0.51494069  0.72238392  0.63752106    -0.01900
C1958       C  0.48451272  0.73321608  0.63847907     0.03100
C1959       C  0.47326833  0.79814436  0.57424279     0.37700
C1960       C  0.52835489  0.69337626  0.65824577     0.37700
C1961       C  0.46843778  0.72181095  0.66193842     0.36100
C1962       C  0.53360124  0.77715047  0.57198396     0.36100
N1963       N  0.45600689  0.71314110  0.68093781    -0.38700
N1964       N  0.54646958  0.79038029  0.55395180    -0.38700
N1965       N  0.53892348  0.66934919  0.67451147    -0.38100
N1966       N  0.46267540  0.82099593  0.55753433    -0.38100
C1967       C  0.62583593  0.13302975  0.47486657    -0.04800
C1968       C  0.65034590  0.14599985  0.49023785    -0.01900
C1969       C  0.64864193  0.14470492  0.51775357     0.03100
C1970       C  0.62227837  0.13103252  0.53006342    -0.04800
C1971       C  0.59889496  0.11324888  0.51467638    -0.01900
C1972       C  0.60059950  0.11445174  0.48722477     0.03100
C1973       C  0.67644900  0.16476023  0.47779865     0.37700
C1974       C  0.57295007  0.09396348  0.52715449     0.37700
C1975       C  0.57600684  0.09780638  0.47163223     0.36100
C1976       C  0.67333379  0.16086746  0.53336130     0.36100
N1977       N  0.55638547  0.08441279  0.45922425    -0.38700
N1978       N  0.69303347  0.17362398  0.54585941    -0.38700
N1979       N  0.55233653  0.07802974  0.53702599    -0.38100
N1980       N  0.69720903  0.17995173  0.46784176    -0.38100
C1981       C  0.62115266  0.87422867  0.63009970    -0.04800
C1982       C  0.64707489  0.89691736  0.63928511    -0.01900
C1983       C  0.64894997  0.94953222  0.64091857     0.03100
C1984       C  0.62484080  0.98005289  0.63371165    -0.04800
C1985       C  0.59858768  0.95746109  0.62556128    -0.01900
C1986       C  0.59674173  0.90492044  0.62370420     0.03100
C1987       C  0.67220042  0.86632815  0.64642758     0.37700
C1988       C  0.57296641  0.98821396  0.62020886     0.37700
C1989       C  0.56912311  0.88263726  0.61630387     0.36100
C1990       C  0.67606805  0.97234140  0.64939380     0.36100
N1991       N  0.54681140  0.86567716  0.61057791    -0.38700
N1992       N  0.69772802  0.99045511  0.65611963    -0.38700
N1993       N  0.55240872  0.01254597  0.61614357    -0.38100
N1994       N  0.69219224  0.84192372  0.65226145    -0.38100
C1995       C  0.61408368  0.37393502  0.62395515    -0.04800
C1996       C  0.59095245  0.40631961  0.61624078    -0.01900
C1997       C  0.59403993  0.45885414  0.61823904     0.03100
C1998       C  0.62042368  0.47960577  0.62762094    -0.04800
C1999       C  0.64368474  0.44710028  0.63472437    -0.01900
C2000       C  0.64032241  0.39475631  0.63345474     0.03100
C2001       C  0.56351157  0.38564727  0.60713193     0.37700
C2002       C  0.67190583  0.46729225  0.64186678     0.37700
C2003       C  0.66435878  0.36226791  0.64129341     0.36100
C2004       C  0.56973457  0.49149006  0.61132335     0.36100
N2005       N  0.68347320  0.33637373  0.64766361    -0.38700
N2006       N  0.55037370  0.51760931  0.60582040    -0.38700
N2007       N  0.69480989  0.48241773  0.64709261    -0.38100
N2008       N  0.54153846  0.36937561  0.59991459    -0.38100
C2009       C  0.71521600  0.12955228  0.63304481    -0.04800
C2010       C  0.72903793  0.09340261  0.61707362    -0.01900
C2011       C  0.75997831  0.08967054  0.61636553     0.03100
C2012       C  0.77729400  0.12208591  0.63171323    -0.04800
C2013       C  0.76325491  0.16076201  0.64603007    -0.01900
C2014       C  0.73247533  0.16414513  0.64682589     0.03100
C2015       C  0.71138978  0.05837589  0.60238587     0.37700
C2016       C  0.78045350  0.19797057  0.65971074     0.37700
C2017       C  0.71847154  0.20375704  0.66170790     0.36100
C2018       C  0.77372670  0.05113084  0.60065556     0.36100
N2019       N  0.70728353  0.23532985  0.67354221    -0.38700
N2020       N  0.78445750  0.02036324  0.58794723    -0.38700
N2021       N  0.79416639  0.22759306  0.67061136    -0.38100
N2022       N  0.69720353  0.03047714  0.59074724    -0.38100
C2023       C  0.52358626  0.22681269  0.62492872    -0.04800
C2024       C  0.50555255  0.19246808  0.61185069    -0.01900
C2025       C  0.47509039  0.20054215  0.61050776     0.03100
C2026       C  0.46222212  0.24297023  0.62258032    -0.04800
C2027       C  0.47999977  0.27468978  0.63787231    -0.01900
C2028       C  0.51064293  0.26664153  0.63899760     0.03100
C2029       C  0.51847702  0.14834727  0.59997921     0.37700
C2030       C  0.46713856  0.31710472  0.65133184     0.37700
C2031       C  0.52897003  0.30080208  0.65357324     0.36100
C2032       C  0.45702281  0.16473284  0.59671946     0.36100
N2033       N  0.54358334  0.32803115  0.66522232    -0.38700
N2034       N  0.44269701  0.13622734  0.58563566    -0.38700
N2035       N  0.45702306  0.35097656  0.66217037    -0.38100
N2036       N  0.52885464  0.11299622  0.59075292    -0.38100
C2037       C  0.62683080  0.86665894  0.97371488    -0.04800
C2038       C  0.60324998  0.88352658  0.98910217    -0.01900
C2039       C  0.60472711  0.87992483  0.01645161     0.03100
C2040       C  0.63027306  0.86128533  0.02874440    -0.04800
C2041       C  0.65542483  0.85173501  0.01351792    -0.01900
C2042       C  0.65359370  0.85370805  0.98598928     0.03100
C2043       C  0.57729108  0.90415282  0.97668873     0.37700
C2044       C  0.68256521  0.83658468  0.02602140     0.37700
C2045       C  0.67849066  0.83863130  0.97032577     0.36100
C2046       C  0.57949586  0.89390233  0.03191066     0.36100
N2047       N  0.69825747  0.82655881  0.95771568    -0.38700
N2048       N  0.55921110  0.90514764  0.04403646    -0.38700
N2049       N  0.70433527  0.82483762  0.03594077    -0.38100
N2050       N  0.55672177  0.92130034  0.96686474    -0.38100
C2051       C  0.71650560  0.87545112  0.86926866    -0.04800
C2052       C  0.73223125  0.83450206  0.87997317    -0.01900
C2053       C  0.76319638  0.83488517  0.88074510     0.03100
C2054       C  0.77860141  0.87621111  0.87095019    -0.04800
C2055       C  0.76292433  0.91877974  0.86245167    -0.01900
C2056       C  0.73206345  0.91824546  0.86123780     0.03100
C2057       C  0.71677599  0.79068598  0.88883800     0.37700
C2058       C  0.77875372  0.96349961  0.85537581     0.37700
C2059       C  0.71639881  0.96194591  0.85170210     0.36100
C2060       C  0.77922884  0.79202291  0.89077206     0.36100
N2061       N  0.70401596  0.99682849  0.84399408    -0.38700
N2062       N  0.79195508  0.75787184  0.89891382    -0.38700
N2063       N  0.79155844  0.99917841  0.85012782    -0.38100
N2064       N  0.70466872  0.75551918  0.89596487    -0.38100
C2065       C  0.46477361  0.75188483  0.88172811    -0.04800
C2066       C  0.47615837  0.79612451  0.89294419    -0.01900
C2067       C  0.50648477  0.80567724  0.89215615     0.03100
C2068       C  0.52556325  0.77274500  0.87889046    -0.04800
C2069       C  0.51370088  0.73219139  0.86485119    -0.01900
C2070       C  0.48369288  0.72052573  0.86716370     0.03100
C2071       C  0.45662339  0.83265201  0.90475971     0.37700
C2072       C  0.53252028  0.70156295  0.84856290     0.37700
C2073       C  0.47291792  0.67436792  0.85603924     0.36100
C2074       C  0.51804720  0.85011118  0.90454134     0.36100
N2075       N  0.46459084  0.63714230  0.84739077    -0.38700
N2076       N  0.52720126  0.88572540  0.91429668    -0.38700
N2077       N  0.54749960  0.67769919  0.83525592    -0.38100
N2078       N  0.44102116  0.86197508  0.91395589    -0.38100
C2079       C  0.62481975  0.76837120  0.77811835    -0.04800
C2080       C  0.59808035  0.76612069  0.76423293    -0.01900
C2081       C  0.59750168  0.74984075  0.73801905     0.03100
C2082       C  0.62345520  0.73312895  0.72576070    -0.04800
C2083       C  0.65027297  0.73566755  0.73967589    -0.01900
C2084       C  0.65096229  0.75348268  0.76557738     0.03100
C2085       C  0.57104144  0.78109588  0.77685560     0.37700
C2086       C  0.67745947  0.72094650  0.72715383     0.37700
C2087       C  0.67857578  0.75469761  0.77962822     0.36100
C2088       C  0.56999689  0.75012188  0.72391159     0.36100
N2089       N  0.70060365  0.75555735  0.79080976    -0.38700
N2090       N  0.54783177  0.75147104  0.71297666    -0.38700
N2091       N  0.69910778  0.70917081  0.71716805    -0.38100
N2092       N  0.54947929  0.79267419  0.78703481    -0.38100
C2093       C  0.62067513  0.36459661  0.97402680    -0.04800
C2094       C  0.64757658  0.36812265  0.98767676    -0.01900
C2095       C  0.64816484  0.36538419  0.01526213     0.03100
C2096       C  0.62180100  0.36030392  0.02936187    -0.04800
C2097       C  0.59487711  0.36390154  0.01581041    -0.01900
C2098       C  0.59429941  0.36588340  0.98840312     0.03100
C2099       C  0.67480524  0.37167484  0.97346878     0.37700
C2100       C  0.56751321  0.36422431  0.03008217     0.37700
C2101       C  0.56628301  0.36804944  0.97498484     0.36100
C2102       C  0.67602877  0.36382408  0.02886205     0.36100
N2103       N  0.54393624  0.36950451  0.96432219    -0.38700
N2104       N  0.69827756  0.36247070  0.03969299    -0.38700
N2105       N  0.54572743  0.36429674  0.04148008    -0.38100
N2106       N  0.69661573  0.37507222  0.96227933    -0.38100
C2107       C  0.61685778  0.62572816  0.87929154    -0.04800
C2108       C  0.59332615  0.59423100  0.88596466    -0.01900
C2109       C  0.59637353  0.54172268  0.88394980     0.03100
C2110       C  0.62334109  0.52012623  0.87635211    -0.04800
C2111       C  0.64721534  0.55158529  0.87091813    -0.01900
C2112       C  0.64375164  0.60405169  0.87157843     0.03100
C2113       C  0.56572912  0.61576560  0.89446024     0.37700
C2114       C  0.67596270  0.53011356  0.86639629     0.37700
C2115       C  0.66827569  0.63573748  0.86511547     0.36100
C2116       C  0.57148154  0.50994285  0.88899084     0.36100
N2117       N  0.68777368  0.66100081  0.85980361    -0.38700
N2118       N  0.55164452  0.48449023  0.89290683    -0.38700
N2119       N  0.69923226  0.51377797  0.86348938    -0.38100
N2120       N  0.54372991  0.63272040  0.90142499    -0.38100
C2121       C  0.62366559  0.01914905  0.87256361    -0.04800
C2122       C  0.64484076  0.04319127  0.88816159    -0.01900
C2123       C  0.64493299  0.09580223  0.89029503     0.03100
C2124       C  0.62383525  0.12504535  0.87686782    -0.04800
C2125       C  0.60237673  0.10090758  0.86152853    -0.01900
C2126       C  0.60220067  0.04822907  0.85952876     0.03100
C2127       C  0.66701958  0.01379173  0.90161527     0.37700
C2128       C  0.57964434  0.13006363  0.84865673     0.37700
C2129       C  0.57897371  0.02379450  0.84512753     0.36100
C2130       C  0.66724376  0.11988784  0.90593486     0.36100
N2131       N  0.56026851  0.00435085  0.83385978    -0.38700
N2132       N  0.68505979  0.13900955  0.91843054    -0.38700
N2133       N  0.56149950  0.15327220  0.83840728    -0.38100
N2134       N  0.68459399  0.99008859  0.91232570    -0.38100
C2135       C  0.71611220  0.37363602  0.86473307    -0.04800
C2136       C  0.73144823  0.40085205  0.84534837    -0.01900
C2137       C  0.76228793  0.40120575  0.84494545     0.03100
C2138       C  0.77860055  0.37405291  0.86357884    -0.04800
C2139       C  0.76361004  0.34748104  0.88317608    -0.01900
C2140       C  0.73257794  0.34719788  0.88374456     0.03100
C2141       C  0.71580365  0.42927609  0.82555250     0.37700
C2142       C  0.78008755  0.31840474  0.90211611     0.37700
C2143       C  0.71783089  0.31715494  0.90303805     0.36100
C2144       C  0.77727142  0.43079689  0.82548980     0.36100
N2145       N  0.70626473  0.29283203  0.91841258    -0.38700
N2146       N  0.78916303  0.45435458  0.80998720    -0.38700
N2147       N  0.79326275  0.29520714  0.91718853    -0.38100
N2148       N  0.70353126  0.45184177  0.80964727    -0.38100
C2149       C  0.46867604  0.23022390  0.87770343    -0.04800
C2150       C  0.48031489  0.27261623  0.86523489    -0.01900
C2151       C  0.51051326  0.28356036  0.86750758     0.03100
C2152       C  0.52956076  0.25065522  0.88111809    -0.04800
C2153       C  0.51818641  0.20539501  0.89100786    -0.01900
C2154       C  0.48793065  0.19557385  0.88946306     0.03100
C2155       C  0.46110789  0.30541850  0.85043869     0.37700
C2156       C  0.53764043  0.16818380  0.90240338     0.37700
C2157       C  0.47659390  0.14875295  0.89910428     0.36100
C2158       C  0.52146771  0.33018547  0.85724819     0.36100
N2159       N  0.46758856  0.11101139  0.90632217    -0.38700
N2160       N  0.53003745  0.36766384  0.84923423    -0.38700
N2161       N  0.55314472  0.13842714  0.91140643    -0.38100
N2162       N  0.44581177  0.33119712  0.83836455    -0.38100
C2163       C  0.61819582  0.27123621  0.77729191    -0.04800
C2164       C  0.62402474  0.22001322  0.77302367    -0.01900
C2165       C  0.62463928  0.20060542  0.74746691     0.03100
C2166       C  0.62058756  0.23259422  0.72572091    -0.04800
C2167       C  0.61469774  0.28394529  0.73010577    -0.01900
C2168       C  0.61294787  0.30283921  0.75570227     0.03100
C2169       C  0.63114654  0.18745885  0.79472520     0.37700
C2170       C  0.61179668  0.31836640  0.70845134     0.37700
C2171       C  0.60552818  0.35514866  0.75977540     0.36100
C2172       C  0.62912518  0.14728993  0.74380403     0.36100
N2173       N  0.59959447  0.39680890  0.76301517    -0.38700
N2174       N  0.63270466  0.10475479  0.74106140    -0.38700
N2175       N  0.60958219  0.34647712  0.69146949    -0.38100
N2176       N  0.63724803  0.16097326  0.81169834    -0.38100
loop_ 
_geom_bond_atom_site_label_1 
_geom_bond_atom_site_label_2 
_geom_bond_distance 
_geom_bond_site_symmetry_2 
_ccdc_geom_bond_type 
O1           Ni7   1.920       .  S
O1           C22   1.270       .  A
O2          Ni25   1.910       .  S
O2           C11   1.269       .  A
O3           Ni7   1.903       .  S
O3          Ni25   1.899       .  S
O3          Ni19   1.914       .  S
O3           H26   0.966       .  S
C4           O21   1.274       .  A
C4           O13   1.274       .  A
C4         C2110   1.490       .  S
O5          Ni24   1.924       .  S
O5           C11   1.270       .  A
O6          Ni24   1.891       .  S
O6            C8   1.266       .  A
Ni7          O10   1.918       .  S
Ni7          O12   1.913       .  S
C8           O18   1.282       .  A
C8         C2135   1.505       .  S
O9          Ni25   1.935       .  S
O9           C15   1.282       .  A
O10          C15   1.277       .  A
C11        C2163   1.488       .  S
O12          C14   1.269       .  A
O13         Ni24   1.931       .  S
C14          O20   1.271       .  A
C14        C2152   1.497       .  S
C15        C2124   1.491       .  S
H16          O17   0.966       .  S
O17         Ni25   1.928       .  S
O17         Ni19   1.922       .  S
O17         Ni24   1.909       .  S
O18         Ni19   1.961       .  S
Ni19         O23   1.931       .  S
Ni19         O21   1.920       .  S
O20         Ni25   1.932       .  S
C22          O23   1.273       .  A
C22        C2093   1.500       .  S
O27         Ni33   1.931       .  S
O27          C48   1.272       .  A
O28         Ni51   1.917       .  S
O28          C37   1.271       .  A
O29         Ni33   1.905       .  S
O29         Ni51   1.906       .  S
O29         Ni45   1.913       .  S
O29          H52   0.965       .  S
C30          O47   1.279       .  A
C30          O39   1.277       .  A
C30        C2121   1.489   1_565  S
O31         Ni50   1.935       .  S
O31          C37   1.273       .  A
O32         Ni50   1.916       .  S
O32          C34   1.271       .  A
Ni33         O36   1.933       .  S
Ni33         O38   1.904       .  S
C34          O44   1.272       .  A
C34        C2051   1.493       .  S
O35         Ni51   1.923       .  S
O35          C41   1.279       .  A
O36          C41   1.278       .  A
C37        C2079   1.493       .  S
O38          C40   1.268       .  A
O39         Ni50   1.923       .  S
C40          O46   1.274       .  A
C40        C2068   1.490       .  S
C41        C2107   1.490       .  S
H42          O43   0.966       .  S
O43         Ni51   1.917       .  S
O43         Ni45   1.911       .  S
O43         Ni50   1.911       .  S
O44         Ni45   1.930       .  S
Ni45         O49   1.920       .  S
Ni45         O47   1.928       .  S
O46         Ni51   1.939       .  S
C48          O49   1.270       .  A
C48        C2037   1.490       .  S
O53         Ni59   1.932       .  S
O53          C74   1.271       .  A
O54         Ni77   1.910       .  S
O54          C63   1.268       .  A
O55         Ni59   1.914       .  S
O55         Ni77   1.909       .  S
O55         Ni71   1.921       .  S
O55          H78   0.966       .  S
C56          O73   1.280       .  A
C56          O65   1.276       .  A
C56        C1984   1.488   1_545  S
O57         Ni76   1.931       .  S
O57          C63   1.271       .  A
O58         Ni76   1.906       .  S
O58          C60   1.268       .  A
Ni59         O62   1.934       .  S
Ni59         O64   1.902       .  S
C60          O70   1.272       .  A
C60        C2009   1.488       .  S
O61         Ni77   1.924       .  S
O61          C67   1.278       .  A
O62          C67   1.278       .  A
C63        C2166   1.496       .  S
O64          C66   1.267       .  A
O65         Ni76   1.923       .  S
C66          O72   1.271       .  A
C66        C2023   1.485       .  S
C67        C1995   1.495       .  S
H68          O69   0.966       .  S
O69         Ni77   1.918       .  S
O69         Ni71   1.915       .  S
O69         Ni76   1.916       .  S
O70         Ni71   1.933       .  S
Ni71         O75   1.925       .  S
Ni71         O73   1.929       .  S
O72         Ni77   1.932       .  S
C74          O75   1.271       .  A
C74        C1970   1.493       .  S
O79         Ni85   1.915       .  S
O79         C100   1.268       .  A
O80        Ni103   1.919       .  S
O80          C89   1.270       .  A
O81         Ni85   1.918       .  S
O81        Ni103   1.919       .  S
O81         Ni97   1.931       .  S
O81         H104   0.965       .  S
C82          O99   1.274       .  A
C82          O91   1.274       .  A
C82        C1998   1.497       .  S
O83        Ni102   1.928       .  S
O83          C89   1.270       .  A
O84        Ni102   1.902       .  S
O84          C86   1.267       .  A
Ni85         O88   1.933       .  S
Ni85         O90   1.900       .  S
C86          O96   1.277       .  A
C86        C1939   1.506       .  S
O87        Ni103   1.915       .  S
O87          C93   1.270       .  A
O88          C93   1.271       .  A
C89        C2082   1.497       .  S
O90          C92   1.268       .  A
O91        Ni102   1.932       .  S
C92          O98   1.282       .  A
C92        C1956   1.507       .  S
C93        C1981   1.495       .  S
H94          O95   0.966       .  S
O95        Ni103   1.918       .  S
O95         Ni97   1.923       .  S
O95        Ni102   1.923       .  S
O96         Ni97   1.948       .  S
Ni97        O101   1.924       .  S
Ni97         O99   1.924       .  S
O98        Ni103   1.963       .  S
C100        O101   1.270       .  A
C100       C1925   1.485       .  S
O105       Ni111   1.933       .  S
O105        C126   1.273       .  A
O106       Ni129   1.919       .  S
O106        C115   1.270       .  A
O107       Ni111   1.904       .  S
O107       Ni129   1.908       .  S
O107       Ni123   1.913       .  S
O107        H130   0.966       .  S
C108        O125   1.277       .  A
C108        O117   1.275       .  A
C108       C1869   1.487   1_545  S
O109       Ni128   1.923       .  S
O109        C115   1.270       .  A
O110       Ni128   1.902       .  S
O110        C112   1.269       .  A
Ni111       O114   1.929       .  S
Ni111       O116   1.907       .  S
C112        O122   1.276       .  A
C112       C1900   1.494       .  S
O113       Ni129   1.927       .  S
O113        C119   1.280       .  A
O114        C119   1.279       .  A
C115       C1914   1.494       .  S
O116        C118   1.268       .  A
O117       Ni128   1.916       .  S
C118        O124   1.273       .  A
C118       C2149   1.490       .  S
C119       C1883   1.492       .  S
H120        O121   0.966       .  S
O121       Ni129   1.921       .  S
O121       Ni123   1.916       .  S
O121       Ni128   1.907       .  S
O122       Ni123   1.940       .  S
Ni123       O127   1.922       .  S
Ni123       O125   1.923       .  S
O124       Ni129   1.940       .  S
C126        O127   1.271       .  A
C126       C1855   1.494       .  S
O131       Ni137   1.919       .  S
O131        C152   1.269       .  A
O132       Ni155   1.916       .  S
O132        C141   1.270       .  A
O133       Ni137   1.905       .  S
O133       Ni155   1.898       .  S
O133       Ni149   1.909       .  S
O133        H156   0.966       .  S
C134        O151   1.273       .  A
C134        O143   1.275       .  A
C134       C1886   1.498       .  S
O135       Ni154   1.928       .  S
O135        C141   1.272       .  A
O136       Ni154   1.897       .  S
O136        C138   1.268       .  A
Ni137       O140   1.916       .  S
Ni137       O142   1.910       .  S
C138        O148   1.281       .  A
C138       C1827   1.498       .  S
O139       Ni155   1.928       .  S
O139        C145   1.281       .  A
O140        C145   1.276       .  A
C141       C1841   1.496       .  S
O142        C144   1.269       .  A
O143       Ni154   1.942       .  S
C144        O150   1.271       .  A
C144       C2065   1.495       .  S
C145       C1872   1.488       .  S
H146        O147   0.966       .  S
O147       Ni155   1.933       .  S
O147       Ni149   1.923       .  S
O147       Ni154   1.912       .  S
O148       Ni149   1.959       .  S
Ni149       O153   1.933       .  S
Ni149       O151   1.914       .  S
O150       Ni155   1.930       .  S
C152        O153   1.273       .  A
C152       C1813   1.497       .  S
O157       Ni163   1.927       .  S
O157        C178   1.270       .  A
O158       Ni181   1.914       .  S
O158        C167   1.268       .  A
O159       Ni163   1.904       .  S
O159       Ni181   1.903       .  S
O159       Ni175   1.911       .  S
O159        H182   0.965       .  S
C160        O177   1.275       .  A
C160        O169   1.274       .  A
C160       C1771   1.481       .  S
O161       Ni180   1.929       .  S
O161        C167   1.271       .  A
O162       Ni180   1.903       .  S
O162        C164   1.269       .  A
Ni163       O166   1.924       .  S
Ni163       O168   1.903       .  S
C164        O174   1.278       .  A
C164       C1799   1.505       .  S
O165       Ni181   1.926       .  S
O165        C171   1.280       .  A
O166        C171   1.278       .  A
C167       C1911   1.489       .  S
O168        C170   1.268       .  A
O169       Ni180   1.924       .  S
C170        O176   1.271       .  A
C170       C2026   1.492       .  S
C171       C1788   1.498       .  S
H172        O173   0.966       .  S
O173       Ni181   1.920       .  S
O173       Ni175   1.920       .  S
O173       Ni180   1.910       .  S
O174       Ni175   1.948       .  S
Ni175       O179   1.929       .  S
Ni175       O177   1.922       .  S
O176       Ni181   1.932       .  S
C178        O179   1.273       .  A
C178       C1757   1.491       .  S
O183       Ni189   1.914       .  S
O183        C204   1.268       .  A
O184       Ni207   1.914       .  S
O184        C193   1.270       .  A
O185       Ni189   1.902       .  S
O185       Ni207   1.902       .  S
O185       Ni201   1.927       .  S
O185        H208   0.966       .  S
C186        O203   1.282       .  A
C186        O195   1.279       .  A
C186       C1785   1.499   1_565  S
O187       Ni206   1.931       .  S
O187        C193   1.272       .  A
O188       Ni206   1.908       .  S
O188        C190   1.267       .  A
Ni189       O192   1.919       .  S
Ni189       O194   1.912       .  S
C190        O200   1.274       .  A
C190       C1743   1.488       .  S
O191       Ni207   1.937       .  S
O191        C197   1.281       .  A
O192        C197   1.276       .  A
C193       C1844   1.500       .  S
O194        C196   1.270       .  A
O195       Ni206   1.926       .  S
C196        O202   1.273       .  A
C196       C1953   1.504       .  S
C197       C1774   1.483       .  S
H198        O199   0.966       .  S
O199       Ni207   1.917       .  S
O199       Ni201   1.908       .  S
O199       Ni206   1.904       .  S
O200       Ni201   1.942       .  S
Ni201       O205   1.930       .  S
Ni201       O203   1.928       .  S
O202       Ni207   1.940       .  S
C204        O205   1.271       .  A
C204       C1729   1.485       .  S
O209       Ni215   1.923   1_545  S
O209        C230   1.270       .  A
O210       Ni233   1.921       .  S
O210        C219   1.270       .  A
O211       Ni215   1.902   1_545  S
O211       Ni233   1.901       .  S
O211       Ni227   1.910       .  S
O211        H234   0.966       .  S
C212        O229   1.276       .  A
C212        O221   1.273       .  A
C212       C1687   1.482       .  S
O213       Ni232   1.920       .  S
O213        C219   1.269       .  A
O214       Ni232   1.901       .  S
O214        C216   1.269       .  A
Ni215       O218   1.917       .  S
Ni215       O220   1.905       .  S
C216        O226   1.276       .  A
C216       C2012   1.497       .  S
O217       Ni233   1.927   1_565  S
O217        C223   1.282       .  A
O218        C223   1.277       .  A
C219       C1715   1.491       .  S
O220        C222   1.268   1_565  A
O221       Ni232   1.913       .  S
C222        O228   1.272       .  A
C222       C1704   1.490   1_545  S
C223       C1673   1.496       .  S
H224        O225   0.966       .  S
O225       Ni233   1.918       .  S
O225       Ni227   1.916       .  S
O225       Ni232   1.904       .  S
O226       Ni227   1.942       .  S
Ni227       O231   1.921       .  S
Ni227       O229   1.919       .  S
O228       Ni233   1.934       .  S
C230        O231   1.270       .  A
C230       C1659   1.489       .  S
O235       Ni241   1.925       .  S
O235        C256   1.269       .  A
O236       Ni259   1.918       .  S
O236        C245   1.271       .  A
O237       Ni241   1.905       .  S
O237       Ni259   1.903       .  S
O237       Ni253   1.909       .  S
O237        H260   0.966       .  S
C238        O255   1.274       .  A
C238        O247   1.273       .  A
C238       C1676   1.495       .  S
O239       Ni258   1.933       .  S
O239        C245   1.272       .  A
O240       Ni258   1.895       .  S
O240        C242   1.270       .  A
Ni241       O244   1.915       .  S
Ni241       O246   1.903       .  S
C242        O252   1.280       .  A
C242       C1942   1.503       .  S
O243       Ni259   1.925       .  S
O243        C249   1.279       .  A
O244        C249   1.277       .  A
C245       C1645   1.497       .  S
O246        C248   1.266       .  A
O247       Ni258   1.919       .  S
C248        O254   1.271       .  A
C248       C1631   1.477       .  S
C249       C1690   1.487       .  S
H250        O251   0.966       .  S
O251       Ni259   1.920       .  S
O251       Ni253   1.922       .  S
O251       Ni258   1.909       .  S
O252       Ni253   1.952       .  S
Ni253       O257   1.931       .  S
Ni253       O255   1.918       .  S
O254       Ni259   1.927       .  S
C256        O257   1.273       .  A
C256       C1617   1.493       .  S
O261       Ni267   1.927       .  S
O261        C282   1.272       .  A
O262       Ni285   1.922       .  S
O262        C271   1.273       .  A
O263       Ni267   1.890       .  S
O263       Ni285   1.900       .  S
O263       Ni279   1.915       .  S
O263        H286   0.966       .  S
C264        O281   1.282       .  A
C264        O273   1.276       .  A
C264       C1589   1.512       .  S
O265       Ni284   1.931       .  S
O265        C271   1.273       .  A
O266       Ni284   1.914       .  S
O266        C268   1.271       .  A
Ni267       O270   1.916       .  S
Ni267       O272   1.904       .  S
C268        O278   1.270       .  A
C268       C2138   1.493       .  S
O269       Ni285   1.922       .  S
O269        C275   1.278       .  A
O270        C275   1.277       .  A
C271       C1648   1.502       .  S
O272        C274   1.269       .  A
O273       Ni284   1.917       .  S
C274        O280   1.279       .  A
C274       C1603   1.512       .  S
C275       C1575   1.477       .  S
H276        O277   0.966       .  S
O277       Ni285   1.910       .  S
O277       Ni279   1.908       .  S
O277       Ni284   1.897       .  S
O278       Ni279   1.925       .  S
Ni279       O283   1.927       .  S
Ni279       O281   1.928       .  S
O280       Ni285   1.948       .  S
C282        O283   1.273       .  A
C282       C1561   1.488       .  S
O287       Ni293   1.923       .  S
O287        C308   1.270       .  A
O288       Ni311   1.918       .  S
O288        C297   1.273       .  A
O289       Ni293   1.888       .  S
O289       Ni311   1.898       .  S
O289       Ni305   1.907       .  S
O289        H312   0.966       .  S
C290        O307   1.275       .  A
C290        O299   1.276       .  A
C290       C1578   1.491       .  S
O291       Ni310   1.929       .  S
O291        C297   1.272       .  A
O292       Ni310   1.905       .  S
O292        C294   1.268       .  A
Ni293       O296   1.910   1_565  S
Ni293       O298   1.914       .  S
C294        O304   1.274       .  A
C294       C2054   1.485       .  S
O295       Ni311   1.937   1_545  S
O295        C301   1.283       .  A
O296        C301   1.275       .  A
C297       C1718   1.495       .  S
O298        C300   1.271       .  A
O299       Ni310   1.927       .  S
C300        O306   1.274       .  A
C300       C1550   1.498       .  S
C301       C1592   1.509       .  S
H302        O303   0.966       .  S
O303       Ni311   1.919       .  S
O303       Ni305   1.916       .  S
O303       Ni310   1.904       .  S
O304       Ni305   1.941       .  S
Ni305       O309   1.926       .  S
Ni305       O307   1.909       .  S
O306       Ni311   1.937       .  S
C308        O309   1.272       .  A
C308       C1533   1.495       .  S
O313       Ni319   1.927   1_545  S
O313        C334   1.271       .  A
O314       Ni337   1.921       .  S
O314        C323   1.270       .  A
O315       Ni319   1.907   1_545  S
O315       Ni337   1.907       .  S
O315       Ni331   1.919       .  S
O315        H338   0.966       .  S
C316        O333   1.280       .  A
C316        O325   1.275       .  A
C316       C1505   1.496       .  S
O317       Ni336   1.925       .  S
O317        C323   1.269       .  A
O318       Ni336   1.903       .  S
O318        C320   1.268       .  A
Ni319       O322   1.924       .  S
Ni319       O324   1.909   1_565  S
C320        O330   1.273       .  A
C320       C1897   1.483       .  S
O321       Ni337   1.926   1_565  S
O321        C327   1.280       .  A
O322        C327   1.277       .  A
C323       C1522   1.495       .  S
O324        C326   1.269       .  A
O325       Ni336   1.921       .  S
C326        O332   1.271       .  A
C326       C1547   1.487       .  S
C327       C1491   1.488       .  S
H328        O329   0.966       .  S
O329       Ni337   1.926       .  S
O329       Ni331   1.917       .  S
O329       Ni336   1.911       .  S
O330       Ni331   1.934       .  S
Ni331       O335   1.925       .  S
Ni331       O333   1.932       .  S
O332       Ni337   1.932       .  S
C334        O335   1.271       .  A
C334       C1477   1.495       .  S
O339       Ni345   1.927       .  S
O339        C360   1.272       .  A
O340       Ni363   1.918       .  S
O340        C349   1.271       .  A
O341       Ni345   1.899       .  S
O341       Ni363   1.907       .  S
O341       Ni357   1.918       .  S
O341        H364   0.966       .  S
C342        O359   1.278       .  A
C342        O351   1.278       .  A
C342       C1494   1.485       .  S
O343       Ni362   1.936       .  S
O343        C349   1.274       .  A
O344       Ni362   1.903       .  S
O344        C346   1.269       .  A
Ni345       O348   1.917       .  S
Ni345       O350   1.908       .  S
C346        O356   1.275       .  A
C346       C1830   1.495       .  S
O347       Ni363   1.936       .  S
O347        C353   1.281       .  A
O348        C353   1.276       .  A
C349       C1463   1.510       .  S
O350        C352   1.268       .  A
O351       Ni362   1.926       .  S
C352        O358   1.274       .  A
C352       C1606   1.523       .  S
C353       C1508   1.490       .  S
H354        O355   0.966       .  S
O355       Ni363   1.914       .  S
O355       Ni357   1.910       .  S
O355       Ni362   1.903       .  S
O356       Ni357   1.938       .  S
Ni357       O361   1.929       .  S
Ni357       O359   1.921       .  S
O358       Ni363   1.938       .  S
C360        O361   1.272       .  A
C360       C1449   1.497       .  S
O365       Ni371   1.918       .  S
O365        C386   1.269       .  A
O366       Ni389   1.916       .  S
O366        C375   1.270       .  A
O367       Ni371   1.906       .  S
O367       Ni389   1.902       .  S
O367       Ni383   1.912       .  S
O367        H390   0.966       .  S
C368        O385   1.274       .  A
C368        O377   1.274       .  A
C368       C1435   1.491       .  S
O369       Ni388   1.932       .  S
O369        C375   1.272       .  A
O370       Ni388   1.907       .  S
O370        C372   1.271       .  A
Ni371       O374   1.913       .  S
Ni371       O376   1.902       .  S
C372        O382   1.277       .  A
C372       C1802   1.495       .  S
O373       Ni389   1.926       .  S
O373        C379   1.280       .  A
O374        C379   1.275       .  A
C375       C1466   1.492       .  S
O376        C378   1.266       .  A
O377       Ni388   1.921       .  S
C378        O384   1.271       .  A
C378       C1634   1.477       .  S
C379       C1421   1.492       .  S
H380        O381   0.966       .  S
O381       Ni389   1.922       .  S
O381       Ni383   1.922       .  S
O381       Ni388   1.912       .  S
O382       Ni383   1.942       .  S
Ni383       O387   1.928       .  S
Ni383       O385   1.919       .  S
O384       Ni389   1.928       .  S
C386        O387   1.272       .  A
C386       C1407   1.495       .  S
O391       Ni397   1.931       .  S
O391        C412   1.271       .  A
O392       Ni415   1.923       .  S
O392        C401   1.272       .  A
O393       Ni397   1.905       .  S
O393       Ni415   1.911       .  S
O393       Ni409   1.912       .  S
O393        H416   0.966       .  S
C394        O411   1.278       .  A
C394        O403   1.275       .  A
C394       C1424   1.489       .  S
O395       Ni414   1.926       .  S
O395        C401   1.271       .  A
O396       Ni414   1.910       .  S
O396        C398   1.269       .  A
Ni397       O400   1.922   1_565  S
Ni397       O402   1.906       .  S
C398        O408   1.273       .  A
C398       C1746   1.487       .  S
O399       Ni415   1.924   1_545  S
O399        C405   1.280       .  A
O400        C405   1.277       .  A
C401       C1519   1.498       .  S
O402        C404   1.268       .  A
O403       Ni414   1.914       .  S
C404        O410   1.273       .  A
C404       C1701   1.486       .  S
C405       C1438   1.491       .  S
H406        O407   0.966       .  S
O407       Ni415   1.918       .  S
O407       Ni409   1.910       .  S
O407       Ni414   1.909       .  S
O408       Ni409   1.934       .  S
Ni409       O413   1.920       .  S
Ni409       O411   1.923       .  S
O410       Ni415   1.938       .  S
C412        O413   1.270       .  A
C412       C1396   1.493       .  S
O417       Ni423   1.931       .  S
O417        C438   1.272       .  A
O418       Ni441   1.922       .  S
O418        C427   1.270       .  A
O419       Ni423   1.908       .  S
O419       Ni441   1.913       .  S
O419       Ni435   1.921       .  S
O419        H442   0.966       .  S
C420        O437   1.281       .  A
C420        O429   1.277       .  A
C420       C1337   1.493       .  S
O421       Ni440   1.929       .  S
O421        C427   1.271       .  A
O422       Ni440   1.905       .  S
O422        C424   1.267       .  A
Ni423       O426   1.921       .  S
Ni423       O428   1.914       .  S
C424        O434   1.272       .  A
C424       C1365   1.487       .  S
O425       Ni441   1.923       .  S
O425        C431   1.277       .  A
O426        C431   1.276       .  A
C427       C1858   1.493       .  S
O428        C430   1.272       .  A
O429       Ni440   1.927       .  S
C430        O436   1.274       .  A
C430       C1354   1.499       .  S
C431       C1323   1.486   1_545  S
H432        O433   0.966       .  S
O433       Ni441   1.912       .  S
O433       Ni435   1.909       .  S
O433       Ni440   1.906       .  S
O434       Ni435   1.936       .  S
Ni435       O439   1.923       .  S
Ni435       O437   1.927       .  S
O436       Ni441   1.934       .  S
C438        O439   1.272       .  A
C438       C1379   1.499       .  S
O443       Ni449   1.932       .  S
O443        C464   1.273       .  A
O444       Ni467   1.926       .  S
O444        C453   1.272       .  A
O445       Ni449   1.909       .  S
O445       Ni467   1.914       .  S
O445       Ni461   1.920       .  S
O445        H468   0.966       .  S
C446        O463   1.281       .  A
C446        O455   1.277       .  A
C446       C1326   1.489       .  S
O447       Ni466   1.924       .  S
O447        C453   1.272       .  A
O448       Ni466   1.914       .  S
O448        C450   1.270       .  A
Ni449       O452   1.925       .  S
Ni449       O454   1.909       .  S
C450        O460   1.274       .  A
C450       C1295   1.497       .  S
O451       Ni467   1.923       .  S
O451        C457   1.278       .  A
O452        C457   1.276       .  A
C453       C1816   1.499       .  S
O454        C456   1.270       .  A
O455       Ni466   1.918       .  S
C456        O462   1.276       .  A
C456       C1281   1.494       .  S
C457       C1340   1.491       .  S
H458        O459   0.966       .  S
O459       Ni467   1.918       .  S
O459       Ni461   1.901       .  S
O459       Ni466   1.901       .  S
O460       Ni461   1.936       .  S
Ni461       O465   1.912       .  S
Ni461       O463   1.932       .  S
O462       Ni467   1.945       .  S
C464        O465   1.270       .  A
C464       C1309   1.490       .  S
O469       Ni475   1.929       .  S
O469        C490   1.270       .  A
O470       Ni493   1.922       .  S
O470        C479   1.269       .  A
O471       Ni475   1.916       .  S
O471       Ni493   1.918       .  S
O471       Ni487   1.921       .  S
O471        H494   0.966       .  S
C472        O489   1.279       .  A
C472        O481   1.277       .  A
C472       C1239   1.489       .  S
O473       Ni492   1.934       .  S
O473        C479   1.271       .  A
O474       Ni492   1.902       .  S
O474        C476   1.268       .  A
Ni475       O478   1.923       .  S
Ni475       O480   1.906       .  S
C476        O486   1.272       .  A
C476       C1270   1.486       .  S
O477       Ni493   1.926       .  S
O477        C483   1.279       .  A
O478        C483   1.276       .  A
C479       C1760   1.492       .  S
O480        C482   1.268       .  A
O481       Ni492   1.929       .  S
C482        O488   1.268       .  A
C482       C1253   1.477       .  S
C483       C1228   1.496       .  S
H484        O485   0.966       .  S
O485       Ni493   1.917       .  S
O485       Ni487   1.912       .  S
O485       Ni492   1.910       .  S
O486       Ni487   1.933       .  S
Ni487       O491   1.922       .  S
Ni487       O489   1.922       .  S
O488       Ni493   1.920       .  S
C490        O491   1.271       .  A
C490       C1382   1.500       .  S
O495       Ni501   1.932       .  S
O495        C516   1.272       .  A
O496       Ni519   1.923       .  S
O496        C505   1.268       .  A
O497       Ni501   1.909       .  S
O497       Ni519   1.916       .  S
O497       Ni513   1.925       .  S
O497        H520   0.966       .  S
C498        O515   1.282       .  A
C498        O507   1.276       .  A
C498       C1225   1.493       .  S
O499       Ni518   1.912       .  S
O499        C505   1.266       .  A
O500       Ni518   1.908       .  S
O500        C502   1.267       .  A
Ni501       O504   1.936       .  S
Ni501       O506   1.901       .  S
C502        O512   1.272       .  A
C502       C1214   1.487       .  S
O503       Ni519   1.918       .  S
O503        C509   1.275       .  A
O504        C509   1.278       .  A
C505       C1732   1.482       .  S
O506        C508   1.267       .  A
O507       Ni518   1.915       .  S
C508        O514   1.276       .  A
C508       C1197   1.510       .  S
C509       C1242   1.489   1_565  S
H510        O511   0.966       .  S
O511       Ni519   1.921       .  S
O511       Ni513   1.904       .  S
O511       Ni518   1.908       .  S
O512       Ni513   1.933       .  S
Ni513       O517   1.916       .  S
Ni513       O515   1.937       .  S
O514       Ni519   1.943       .  S
C516        O517   1.270       .  A
C516       C1312   1.500       .  S
O521       Ni527   1.927       .  S
O521        C542   1.271       .  A
O522       Ni545   1.928       .  S
O522        C531   1.270       .  A
O523       Ni527   1.912       .  S
O523       Ni545   1.920       .  S
O523       Ni539   1.920       .  S
O523        H546   0.966       .  S
C524        O541   1.280       .  A
C524        O533   1.275       .  A
C524       C1155   1.488       .  S
O525       Ni544   1.921       .  S
O525        C531   1.269       .  A
O526       Ni544   1.906       .  S
O526        C528   1.269       .  A
Ni527       O530   1.929       .  S
Ni527       O532   1.899       .  S
C528        O538   1.273       .  A
C528       C1368   1.494       .  S
O529       Ni545   1.915       .  S
O529        C535   1.274       .  A
O530        C535   1.275       .  A
C531       C2096   1.497       .  S
O532        C534   1.267       .  A
O533       Ni544   1.914       .  S
C534        O540   1.275       .  A
C534       C1169   1.483       .  S
C535       C1141   1.500       .  S
H536        O537   0.966       .  S
O537       Ni545   1.913       .  S
O537       Ni539   1.908       .  S
O537       Ni544   1.904       .  S
O538       Ni539   1.933       .  S
Ni539       O543   1.919       .  S
Ni539       O541   1.929       .  S
O540       Ni545   1.946       .  S
C542        O543   1.271       .  A
C542       C1183   1.490       .  S
O547       Ni553   1.930       .  S
O547        C568   1.271       .  A
O548       Ni571   1.926       .  S
O548        C557   1.271       .  A
O549       Ni553   1.918       .  S
O549       Ni571   1.922       .  S
O549       Ni565   1.916       .  S
O549        H572   0.966       .  S
C550        O567   1.276       .  A
C550        O559   1.278       .  A
C550       C1144   1.504       .  S
O551       Ni570   1.932       .  S
O551        C557   1.272       .  A
O552       Ni570   1.902       .  S
O552        C554   1.266       .  A
Ni553       O556   1.916       .  S
Ni553       O558   1.912       .  S
C554        O564   1.276       .  A
C554       C1298   1.490       .  S
O555       Ni571   1.922       .  S
O555        C561   1.276       .  A
O556        C561   1.274       .  A
C557       C2040   1.491       .  S
O558        C560   1.270       .  A
O559       Ni570   1.929       .  S
C560        O566   1.272       .  A
C560       C1113   1.486       .  S
C561       C1158   1.486   1_565  S
H562        O563   0.966       .  S
O563       Ni571   1.907       .  S
O563       Ni565   1.911       .  S
O563       Ni570   1.905       .  S
O564       Ni565   1.948       .  S
Ni565       O569   1.925       .  S
Ni565       O567   1.916       .  S
O566       Ni571   1.931       .  S
C568        O569   1.271       .  A
C568       C1127   1.501       .  S
O573       Ni579   1.928       .  S
O573        C594   1.272       .  A
O574       Ni597   1.931       .  S
O574        C583   1.274       .  A
O575       Ni579   1.904       .  S
O575       Ni597   1.918       .  S
O575       Ni591   1.919       .  S
O575        H598   0.966       .  S
C576        O593   1.280       .  A
C576        O585   1.278       .  A
C576       C1088   1.489       .  S
O577       Ni596   1.928       .  S
O577        C583   1.270       .  A
O578       Ni596   1.905       .  S
O578        C580   1.269       .  A
Ni579       O582   1.918       .  S
Ni579       O584   1.906       .  S
C580        O590   1.272       .  A
C580       C1267   1.494       .  S
O581       Ni597   1.926       .  S
O581        C587   1.278       .  A
O582        C587   1.274       .  A
C583       C1967   1.492       .  S
O584        C586   1.270       .  A
O585       Ni596   1.925       .  S
C586        O592   1.277       .  A
C586       C1099   1.497       .  S
C587       C1071   1.482   1_545  S
H588        O589   0.965       .  S
O589       Ni597   1.913       .  S
O589       Ni591   1.905       .  S
O589       Ni596   1.900       .  S
O590       Ni591   1.933       .  S
Ni591       O595   1.919       .  S
Ni591       O593   1.927       .  S
O592       Ni597   1.941       .  S
C594        O595   1.270       .  A
C594       C1186   1.498       .  S
O599       Ni605   1.929       .  S
O599        C620   1.271       .  A
O600       Ni623   1.922       .  S
O600        C609   1.270       .  A
O601       Ni605   1.903       .  S
O601       Ni623   1.912       .  S
O601       Ni617   1.915       .  S
O601        H624   0.965       .  S
C602        O619   1.279       .  A
C602        O611   1.276       .  A
C602       C1074   1.483       .  S
O603       Ni622   1.926       .  S
O603        C609   1.271       .  A
O604       Ni622   1.906       .  S
O604        C606   1.269       .  A
Ni605       O608   1.922       .  S
Ni605       O610   1.903       .  S
C606        O616   1.277       .  A
C606       C1211   1.497       .  S
O607       Ni623   1.926       .  S
O607        C613   1.279       .  A
O608        C613   1.276       .  A
C609       C1928   1.490       .  S
O610        C612   1.269       .  A
O611       Ni622   1.921       .  S
C612        O618   1.272       .  A
C612       C1057   1.491       .  S
C613       C1085   1.490       .  S
H614        O615   0.965       .  S
O615       Ni623   1.915       .  S
O615       Ni617   1.906       .  S
O615       Ni622   1.898       .  S
O616       Ni617   1.943       .  S
Ni617       O621   1.925       .  S
Ni617       O619   1.926       .  S
O618       Ni623   1.933       .  S
C620        O621   1.274       .  A
C620       C1130   1.499       .  S
O625       Ni631   1.933       .  S
O625        C646   1.272       .  A
O626       Ni649   1.920       .  S
O626        C635   1.269       .  A
O627       Ni631   1.912       .  S
O627       Ni649   1.917       .  S
O627       Ni643   1.918       .  S
O627        H650   0.966       .  S
C628        O645   1.278       .  A
C628        O637   1.277       .  A
C628       C1001   1.489       .  S
O629       Ni648   1.931   1_545  S
O629        C635   1.272       .  A
O630       Ni648   1.906   1_545  S
O630        C632   1.268       .  A
Ni631       O634   1.928       .  S
Ni631       O636   1.910       .  S
C632        O642   1.272       .  A
C632       C1032   1.487       .  S
O633       Ni649   1.927       .  S
O633        C639   1.278       .  A
O634        C639   1.277       .  A
C635       C1662   1.491       .  S
O636        C638   1.269       .  A
O637       Ni648   1.927       .  S
C638        O644   1.272       .  A
C638       C1102   1.489       .  S
C639       C1015   1.498       .  S
H640        O641   0.966       .  S
O641       Ni649   1.916       .  S
O641       Ni643   1.912       .  S
O641       Ni648   1.910   1_545  S
O642       Ni643   1.936       .  S
Ni643       O647   1.921       .  S
Ni643       O645   1.920   1_545  S
O644       Ni649   1.934       .  S
C646        O647   1.270       .  A
C646       C1046   1.504       .  S
O651       Ni657   1.932       .  S
O651        C672   1.271       .  A
O652       Ni675   1.921       .  S
O652        C661   1.270       .  A
O653       Ni657   1.912       .  S
O653       Ni675   1.915       .  S
O653       Ni669   1.917       .  S
O653        H676   0.966       .  S
C654        O671   1.279       .  A
C654        O663   1.278       .  A
C654       C1018   1.499       .  S
O655       Ni674   1.936       .  S
O655        C661   1.272       .  A
O656       Ni674   1.907       .  S
O656        C658   1.268       .  A
Ni657       O660   1.925       .  S
Ni657       O662   1.904       .  S
C658        O668   1.271       .  A
C658        C973   1.484       .  S
O659       Ni675   1.921       .  S
O659        C665   1.277       .  A
O660        C665   1.277       .  A
C661       C1620   1.495       .  S
O662        C664   1.268       .  A
O663       Ni674   1.930       .  S
C664        O670   1.272       .  A
C664       C1060   1.484       .  S
C665       C1004   1.489       .  S
H666        O667   0.966       .  S
O667       Ni675   1.915       .  S
O667       Ni669   1.914       .  S
O667       Ni674   1.910       .  S
O668       Ni669   1.932       .  S
Ni669       O673   1.919       .  S
Ni669       O671   1.925       .  S
O670       Ni675   1.933       .  S
C672        O673   1.270       .  A
C672        C987   1.505       .  S
O677       Ni683   1.927       .  S
O677        C698   1.270       .  A
O678       Ni701   1.921       .  S
O678        C687   1.270       .  A
O679       Ni683   1.912       .  S
O679       Ni701   1.914       .  S
O679       Ni695   1.921       .  S
O679        H702   0.966       .  S
C680        O697   1.280       .  A
C680        O689   1.278       .  A
C680        C931   1.494       .  S
O681       Ni700   1.930       .  S
O681        C687   1.272       .  A
O682       Ni700   1.909       .  S
O682        C684   1.270       .  A
Ni683       O686   1.917       .  S
Ni683       O688   1.908       .  S
C684        O694   1.274       .  A
C684        C959   1.495       .  S
O685       Ni701   1.922       .  S
O685        C691   1.278       .  A
O686        C691   1.275       .  A
C687       C1564   1.490       .  S
O688        C690   1.269       .  A
O689       Ni700   1.925       .  S
C690        O696   1.272       .  A
C690       C1172   1.486       .  S
C691        C948   1.486       .  S
H692        O693   0.966       .  S
O693       Ni701   1.913       .  S
O693       Ni695   1.902       .  S
O693       Ni700   1.902       .  S
O694       Ni695   1.940       .  S
Ni695       O699   1.917       .  S
Ni695       O697   1.923       .  S
O696       Ni701   1.930       .  S
C698        O699   1.270       .  A
C698        C990   1.488       .  S
O703       Ni709   1.933       .  S
O703        C724   1.272       .  A
O704       Ni727   1.930       .  S
O704        C713   1.273       .  A
O705       Ni709   1.910       .  S
O705       Ni727   1.918       .  S
O705       Ni721   1.918       .  S
O705        H728   0.967       .  S
C706        O723   1.279       .  A
C706        O715   1.277       .  A
C706        C945   1.488       .  S
O707       Ni726   1.927       .  S
O707        C713   1.270       .  A
O708       Ni726   1.904       .  S
O708        C710   1.268       .  A
Ni709       O712   1.926       .  S
Ni709       O714   1.901       .  S
C710        O720   1.276       .  A
C710        C917   1.488       .  S
O711       Ni727   1.919       .  S
O711        C717   1.276       .  A
O712        C717   1.277       .  A
C713       C1536   1.496       .  S
O714        C716   1.267       .  A
O715       Ni726   1.919   1_545  S
C716        O722   1.276       .  A
C716       C1116   1.483       .  S
C717        C934   1.495       .  S
H718        O719   0.966       .  S
O719       Ni727   1.913       .  S
O719       Ni721   1.906       .  S
O719       Ni726   1.904       .  S
O720       Ni721   1.940       .  S
Ni721       O725   1.926       .  S
Ni721       O723   1.923   1_565  S
O722       Ni727   1.943       .  S
C724        O725   1.274       .  A
C724       C1043   1.500       .  S
O729       Ni735   1.938       .  S
O729        C750   1.275       .  A
O730       Ni753   1.925       .  S
O730        C739   1.272       .  A
O731       Ni735   1.902       .  S
O731       Ni753   1.910       .  S
O731       Ni747   1.912       .  S
O731        H754   0.966       .  S
C732        O749   1.282       .  A
C732        O741   1.278       .  A
C732        C878   1.502       .  S
O733       Ni752   1.929   1_545  S
O733        C739   1.272       .  A
O734       Ni752   1.913       .  S
O734        C736   1.269   1_565  A
Ni735       O738   1.932       .  S
Ni735       O740   1.910       .  S
C736        O746   1.272       .  A
C736        C920   1.486       .  S
O737       Ni753   1.916       .  S
O737        C743   1.278       .  A
O738        C743   1.279       .  A
C739       C1480   1.493       .  S
O740        C742   1.270       .  A
O741       Ni752   1.923       .  S
C742        O748   1.275       .  A
C742       C1351   1.492       .  S
C743        C889   1.494       .  S
H744        O745   0.966       .  S
O745       Ni753   1.914       .  S
O745       Ni747   1.903       .  S
O745       Ni752   1.898   1_545  S
O746       Ni747   1.933       .  S
Ni747       O751   1.919       .  S
Ni747       O749   1.932   1_545  S
O748       Ni753   1.941       .  S
C750        O751   1.272       .  A
C750        C903   1.509       .  S
O755       Ni761   1.932       .  S
O755        C776   1.273       .  A
O756       Ni779   1.935       .  S
O756        C765   1.275       .  A
O757       Ni761   1.900       .  S
O757       Ni779   1.912       .  S
O757       Ni773   1.912       .  S
O757        H780   0.966       .  S
C758        O775   1.278       .  A
C758        O767   1.278       .  A
C758        C892   1.490       .  S
O759       Ni778   1.922       .  S
O759        C765   1.270       .  A
O760       Ni778   1.907       .  S
O760        C762   1.268       .  A
Ni761       O764   1.922       .  S
Ni761       O766   1.916       .  S
C762        O772   1.274       .  A
C762        C962   1.490       .  S
O763       Ni779   1.934       .  S
O763        C769   1.283       .  A
O764        C769   1.276       .  A
C765       C1452   1.500       .  S
O766        C768   1.272       .  A
O767       Ni778   1.923       .  S
C768        O774   1.276       .  A
C768       C1284   1.505       .  S
C769        C875   1.510       .  S
H770        O771   0.966       .  S
O771       Ni779   1.918       .  S
O771       Ni773   1.906       .  S
O771       Ni778   1.899       .  S
O772       Ni773   1.943       .  S
Ni773       O777   1.916       .  S
Ni773       O775   1.921       .  S
O774       Ni779   1.945       .  S
C776        O777   1.270       .  A
C776        C861   1.495       .  S
O781       Ni787   1.926       .  S
O781        C802   1.270       .  A
O782       Ni805   1.926       .  S
O782        C791   1.272       .  A
O783       Ni787   1.908       .  S
O783       Ni805   1.918       .  S
O783       Ni799   1.918       .  S
O783        H806   0.966       .  S
C784        O801   1.281       .  A
C784        O793   1.277       .  A
C784        C833   1.496       .  S
O785       Ni804   1.920       .  S
O785        C791   1.269       .  A
O786       Ni804   1.901       .  S
O786        C788   1.267       .  A
Ni787       O790   1.916       .  S
Ni787       O792   1.898       .  S
C788        O798   1.272       .  A
C788        C976   1.488       .  S
O789       Ni805   1.918       .  S
O789        C795   1.276       .  A
O790        C795   1.273       .  A
C791       C1410   1.496       .  S
O792        C794   1.269       .  A
O793       Ni804   1.916       .  S
C794        O800   1.273       .  A
C794       C1256   1.483       .  S
C795        C847   1.480       .  S
H796        O797   0.964       .  S
O797       Ni805   1.911       .  S
O797       Ni799   1.897       .  S
O797       Ni804   1.896       .  S
O798       Ni799   1.933       .  S
Ni799       O803   1.915       .  S
Ni799       O801   1.927       .  S
O800       Ni805   1.934       .  S
C802        O803   1.270       .  A
C802        C864   1.494       .  S
O807       Ni813   1.933       .  S
O807        C828   1.272       .  A
O808       Ni831   1.930       .  S
O808        C817   1.272       .  A
O809       Ni813   1.913       .  S
O809       Ni831   1.923       .  S
O809       Ni825   1.924       .  S
O809        H832   0.965       .  S
C810        O827   1.281       .  A
C810        O819   1.276       .  A
C810        C850   1.484       .  S
O811       Ni830   1.917       .  S
O811        C817   1.268       .  A
O812       Ni830   1.907       .  S
O812        C814   1.268       .  A
Ni813       O816   1.922       .  S
Ni813       O818   1.901       .  S
C814        O824   1.273       .  A
C814       C1029   1.494       .  S
O815       Ni831   1.918       .  S
O815        C821   1.274       .  A
O816        C821   1.273       .  A
C817       C1393   1.490       .  S
O818        C820   1.271       .  A
O819       Ni830   1.914   1_545  S
C820        O826   1.278       .  A
C820       C1200   1.502       .  S
C821        C836   1.497       .  S
H822        O823   0.966       .  S
O823       Ni831   1.908       .  S
O823       Ni825   1.898       .  S
O823       Ni830   1.901       .  S
O824       Ni825   1.933       .  S
Ni825       O829   1.917       .  S
Ni825       O827   1.925   1_565  S
O826       Ni831   1.946       .  S
C828        O829   1.271       .  A
C828        C906   1.495       .  S
C833        C834   1.418       .  A
C833        C838   1.416       .  A
C834        C835   1.413       .  A
C834        C839   1.453       .  S
C835        C836   1.415       .  A
C835        C842   1.450       .  S
C836        C837   1.419       .  A
C837        C838   1.412       .  A
C837        C840   1.453       .  S
C838        C841   1.453       .  S
C839        N846   1.158       .  T
C840        N845   1.157       .  T
C841        N843   1.158       .  T
C842        N844   1.157       .  T
C847        C848   1.412       .  A
C847        C852   1.412       .  A
C848        C849   1.411       .  A
C848        C853   1.453       .  S
C849        C850   1.416       .  A
C849        C856   1.452       .  S
C850        C851   1.415       .  A
C851        C852   1.409       .  A
C851        C854   1.452       .  S
C852        C855   1.451       .  S
C853        N860   1.158       .  T
C854        N859   1.157       .  T
C855        N857   1.157       .  T
C856        N858   1.157       .  T
C861        C862   1.416       .  A
C861        C866   1.416       .  A
C862        C863   1.413       .  A
C862        C867   1.452       .  S
C863        C864   1.417       .  A
C863        C870   1.453       .  S
C864        C865   1.415       .  A
C865        C866   1.415       .  A
C865        C868   1.452       .  S
C866        C869   1.451       .  S
C867        N874   1.157       .  T
C868        N873   1.157       .  T
C869        N871   1.157       .  T
C870        N872   1.158       .  T
C875        C876   1.424       .  A
C875        C880   1.417       .  A
C876        C877   1.413       .  A
C876        C881   1.451       .  S
C877        C878   1.415       .  A
C877        C884   1.453       .  S
C878        C879   1.421       .  A
C879        C880   1.415       .  A
C879        C882   1.453       .  S
C880        C883   1.453       .  S
C881        N888   1.158       .  T
C882        N887   1.157       .  T
C883        N885   1.157       .  T
C884        N886   1.158       .  T
C889        C890   1.418       .  A
C889        C894   1.416       .  A
C890        C891   1.413       .  A
C890        C895   1.452       .  S
C891        C892   1.414       .  A
C891        C898   1.452       .  S
C892        C893   1.416       .  A
C893        C894   1.411       .  A
C893        C896   1.453       .  S
C894        C897   1.451       .  S
C895        N902   1.157       .  T
C896        N901   1.158       .  T
C897        N899   1.157       .  T
C898        N900   1.157       .  T
C903        C904   1.424       .  A
C903        C908   1.420   1_545  A
C904        C905   1.416       .  A
C904        C909   1.452       .  S
C905        C906   1.411   1_545  A
C905        C912   1.451       .  S
C906        C907   1.415       .  A
C907        C908   1.416       .  A
C907        C910   1.452       .  S
C908        C911   1.451       .  S
C909        N916   1.158       .  T
C910        N915   1.157       .  T
C911        N913   1.157       .  T
C912        N914   1.157       .  T
C917        C918   1.411       .  A
C917        C922   1.417   1_565  A
C918        C919   1.414   1_655  A
C918        C923   1.451       .  S
C919        C920   1.413   1_565  A
C919        C926   1.449       .  S
C920        C921   1.409       .  A
C921        C922   1.413   1_455  A
C921        C924   1.449       .  S
C922        C925   1.452       .  S
C923        N930   1.157       .  T
C924        N929   1.156       .  T
C925        N927   1.157       .  T
C926        N928   1.157       .  T
C931        C932   1.417       .  A
C931        C936   1.416       .  A
C932        C933   1.413       .  A
C932        C937   1.452       .  S
C933        C934   1.415       .  A
C933        C940   1.452       .  S
C934        C935   1.417       .  A
C935        C936   1.412       .  A
C935        C938   1.452       .  S
C936        C939   1.453       .  S
C937        N944   1.157       .  T
C938        N943   1.157       .  T
C939        N941   1.158       .  T
C940        N942   1.158       .  T
C945        C946   1.415       .  A
C945        C950   1.416       .  A
C946        C947   1.411       .  A
C946        C951   1.452       .  S
C947        C948   1.414       .  A
C947        C954   1.452       .  S
C948        C949   1.414       .  A
C949        C950   1.411       .  A
C949        C952   1.452       .  S
C950        C953   1.452       .  S
C951        N958   1.157       .  T
C952        N957   1.157       .  T
C953        N955   1.158       .  T
C954        N956   1.157       .  T
C959        C960   1.414       .  A
C959        C964   1.417       .  A
C960        C961   1.418   1_655  A
C960        C965   1.449       .  S
C961        C962   1.414       .  A
C961        C968   1.450       .  S
C962        C963   1.410       .  A
C963        C964   1.412   1_455  A
C963        C966   1.450       .  S
C964        C967   1.452       .  S
C965        N972   1.157       .  T
C966        N971   1.157       .  T
C967        N969   1.157       .  T
C968        N970   1.157       .  T
C973        C974   1.413       .  A
C973        C978   1.409       .  A
C974        C975   1.415   1_655  A
C974        C979   1.450       .  S
C975        C976   1.414       .  A
C975        C982   1.450       .  S
C976        C977   1.416       .  A
C977        C978   1.409   1_455  A
C977        C980   1.453       .  S
C978        C981   1.448       .  S
C979        N986   1.157       .  T
C980        N985   1.158       .  T
C981        N983   1.156       .  T
C982        N984   1.157       .  T
C987        C988   1.424       .  A
C987        C992   1.420       .  A
C988        C989   1.414       .  A
C988        C993   1.452       .  S
C989        C990   1.409       .  A
C989        C996   1.452       .  S
C990        C991   1.413       .  A
C991        C992   1.414       .  A
C991        C994   1.453       .  S
C992        C995   1.451       .  S
C993       N1000   1.158       .  T
C994        N999   1.157       .  T
C995        N997   1.157       .  T
C996        N998   1.157       .  T
C1001      C1002   1.415       .  A
C1001      C1006   1.413       .  A
C1002      C1003   1.411       .  A
C1002      C1007   1.452       .  S
C1003      C1004   1.413       .  A
C1003      C1010   1.449       .  S
C1004      C1005   1.415       .  A
C1005      C1006   1.412       .  A
C1005      C1008   1.452       .  S
C1006      C1009   1.450       .  S
C1007      N1014   1.157       .  T
C1008      N1013   1.157       .  T
C1009      N1011   1.157       .  T
C1010      N1012   1.156       .  T
C1015      C1016   1.414       .  A
C1015      C1020   1.417       .  A
C1016      C1017   1.415       .  A
C1016      C1021   1.449       .  S
C1017      C1018   1.418       .  A
C1017      C1024   1.453       .  S
C1018      C1019   1.415       .  A
C1019      C1020   1.415       .  A
C1019      C1022   1.450       .  S
C1020      C1023   1.452       .  S
C1021      N1028   1.156       .  T
C1022      N1027   1.157       .  T
C1023      N1025   1.157       .  T
C1024      N1026   1.158       .  T
C1029      C1030   1.418   1_565  A
C1029      C1034   1.417       .  A
C1030      C1031   1.410   1_455  A
C1030      C1035   1.452       .  S
C1031      C1032   1.408       .  A
C1031      C1038   1.447       .  S
C1032      C1033   1.412   1_545  A
C1033      C1034   1.416   1_655  A
C1033      C1036   1.450       .  S
C1034      C1037   1.450       .  S
C1035      N1042   1.158       .  T
C1036      N1041   1.157       .  T
C1037      N1039   1.157       .  T
C1038      N1040   1.155       .  T
C1043      C1044   1.412   1_565  A
C1043      C1048   1.418       .  A
C1044      C1045   1.415       .  A
C1044      C1049   1.450       .  S
C1045      C1046   1.420       .  A
C1045      C1052   1.452       .  S
C1046      C1047   1.417   1_545  A
C1047      C1048   1.417       .  A
C1047      C1050   1.451       .  S
C1048      C1051   1.452       .  S
C1049      N1056   1.157       .  T
C1050      N1055   1.157       .  T
C1051      N1053   1.157       .  T
C1052      N1054   1.158       .  T
C1057      C1058   1.417       .  A
C1057      C1062   1.416       .  A
C1058      C1059   1.408       .  A
C1058      C1063   1.453       .  S
C1059      C1060   1.410       .  A
C1059      C1066   1.451       .  S
C1060      C1061   1.414       .  A
C1061      C1062   1.416       .  A
C1061      C1064   1.451       .  S
C1062      C1065   1.450       .  S
C1063      N1070   1.157       .  T
C1064      N1069   1.157       .  T
C1065      N1067   1.157       .  T
C1066      N1068   1.157       .  T
C1071      C1072   1.413       .  A
C1071      C1076   1.413       .  A
C1072      C1073   1.411       .  A
C1072      C1077   1.451       .  S
C1073      C1074   1.413       .  A
C1073      C1080   1.452       .  S
C1074      C1075   1.413       .  A
C1075      C1076   1.412       .  A
C1075      C1078   1.451       .  S
C1076      C1079   1.452       .  S
C1077      N1084   1.157       .  T
C1078      N1083   1.157       .  T
C1079      N1081   1.157   1_565  T
C1080      N1082   1.157       .  T
C1085      C1086   1.416       .  A
C1085      C1090   1.414       .  A
C1086      C1087   1.413       .  A
C1086      C1091   1.451       .  S
C1087      C1088   1.414       .  A
C1087      C1094   1.452       .  S
C1088      C1089   1.414       .  A
C1089      C1090   1.413       .  A
C1089      C1092   1.451       .  S
C1090      C1093   1.452       .  S
C1091      N1098   1.157       .  T
C1092      N1097   1.157       .  T
C1093      N1095   1.157       .  T
C1094      N1096   1.157       .  T
C1099      C1100   1.420       .  A
C1099      C1104   1.416       .  A
C1100      C1101   1.412       .  A
C1100      C1105   1.453       .  S
C1101      C1102   1.410       .  A
C1101      C1108   1.451       .  S
C1102      C1103   1.413       .  A
C1103      C1104   1.417       .  A
C1103      C1106   1.451       .  S
C1104      C1107   1.450       .  S
C1105      N1112   1.158       .  T
C1106      N1111   1.157       .  T
C1107      N1109   1.157       .  T
C1108      N1110   1.157   1_545  T
C1113      C1114   1.413       .  A
C1113      C1118   1.414       .  A
C1114      C1115   1.414       .  A
C1114      C1119   1.451       .  S
C1115      C1116   1.412       .  A
C1115      C1122   1.449       .  S
C1116      C1117   1.411       .  A
C1117      C1118   1.412       .  A
C1117      C1120   1.452       .  S
C1118      C1121   1.451       .  S
C1119      N1126   1.157       .  T
C1120      N1125   1.157       .  T
C1121      N1123   1.157       .  T
C1122      N1124   1.157       .  T
C1127      C1128   1.417       .  A
C1127      C1132   1.417       .  A
C1128      C1129   1.414       .  A
C1128      C1133   1.452       .  S
C1129      C1130   1.417       .  A
C1129      C1136   1.453       .  S
C1130      C1131   1.414       .  A
C1131      C1132   1.418       .  A
C1131      C1134   1.451       .  S
C1132      C1135   1.450       .  S
C1133      N1140   1.158       .  T
C1134      N1139   1.157       .  T
C1135      N1137   1.157       .  T
C1136      N1138   1.158       .  T
C1141      C1142   1.415       .  A
C1141      C1146   1.421       .  A
C1142      C1143   1.413       .  A
C1142      C1147   1.453       .  S
C1143      C1144   1.422       .  A
C1143      C1150   1.453       .  S
C1144      C1145   1.418       .  A
C1145      C1146   1.413       .  A
C1145      C1148   1.453       .  S
C1146      C1149   1.453       .  S
C1147      N1154   1.158       .  T
C1148      N1153   1.158       .  T
C1149      N1151   1.158       .  T
C1150      N1152   1.158       .  T
C1155      C1156   1.415       .  A
C1155      C1160   1.416       .  A
C1156      C1157   1.411       .  A
C1156      C1161   1.452       .  S
C1157      C1158   1.414       .  A
C1157      C1164   1.452       .  S
C1158      C1159   1.413       .  A
C1159      C1160   1.412       .  A
C1159      C1162   1.452       .  S
C1160      C1163   1.451       .  S
C1161      N1168   1.157       .  T
C1162      N1167   1.157   1_545  T
C1163      N1165   1.157       .  T
C1164      N1166   1.157   1_545  T
C1169      C1170   1.410       .  A
C1169      C1174   1.413       .  A
C1170      C1171   1.411       .  A
C1170      C1175   1.451       .  S
C1171      C1172   1.415       .  A
C1171      C1178   1.452       .  S
C1172      C1173   1.412       .  A
C1173      C1174   1.413       .  A
C1173      C1176   1.451       .  S
C1174      C1177   1.449       .  S
C1175      N1182   1.157       .  T
C1176      N1181   1.157       .  T
C1177      N1179   1.157       .  T
C1178      N1180   1.157       .  T
C1183      C1184   1.413       .  A
C1183      C1188   1.413       .  A
C1184      C1185   1.418       .  A
C1184      C1189   1.451       .  S
C1185      C1186   1.418       .  A
C1185      C1192   1.451       .  S
C1186      C1187   1.417       .  A
C1187      C1188   1.411       .  A
C1187      C1190   1.453       .  S
C1188      C1191   1.452       .  S
C1189      N1196   1.157       .  T
C1190      N1195   1.157       .  T
C1191      N1193   1.157       .  T
C1192      N1194   1.157       .  T
C1197      C1198   1.425       .  A
C1197      C1202   1.421       .  A
C1198      C1199   1.412       .  A
C1198      C1203   1.454       .  S
C1199      C1200   1.415       .  A
C1199      C1206   1.455       .  S
C1200      C1201   1.416       .  A
C1201      C1202   1.418       .  A
C1201      C1204   1.448       .  S
C1202      C1205   1.452       .  S
C1203      N1210   1.158       .  T
C1204      N1209   1.156       .  T
C1205      N1207   1.158       .  T
C1206      N1208   1.158       .  T
C1211      C1212   1.420       .  A
C1211      C1216   1.415       .  A
C1212      C1213   1.412       .  A
C1212      C1217   1.452       .  S
C1213      C1214   1.410       .  A
C1213      C1220   1.452       .  S
C1214      C1215   1.413       .  A
C1215      C1216   1.416       .  A
C1215      C1218   1.451       .  S
C1216      C1219   1.450       .  S
C1217      N1224   1.158       .  T
C1218      N1223   1.157       .  T
C1219      N1221   1.157       .  T
C1220      N1222   1.157       .  T
C1225      C1226   1.417       .  A
C1225      C1230   1.412       .  A
C1226      C1227   1.412       .  A
C1226      C1231   1.453       .  S
C1227      C1228   1.414       .  A
C1227      C1234   1.451       .  S
C1228      C1229   1.420       .  A
C1229      C1230   1.415       .  A
C1229      C1232   1.452       .  S
C1230      C1233   1.451       .  S
C1231      N1238   1.157       .  T
C1232      N1237   1.157       .  T
C1233      N1235   1.157       .  T
C1234      N1236   1.157       .  T
C1239      C1240   1.411       .  A
C1239      C1244   1.416       .  A
C1240      C1241   1.411       .  A
C1240      C1245   1.451       .  S
C1241      C1242   1.413       .  A
C1241      C1248   1.448       .  S
C1242      C1243   1.413       .  A
C1243      C1244   1.415       .  A
C1243      C1246   1.450   1_545  S
C1244      C1247   1.451       .  S
C1245      N1252   1.157       .  T
C1246      N1251   1.157       .  T
C1247      N1249   1.157       .  T
C1248      N1250   1.156       .  T
C1253      C1254   1.409       .  A
C1253      C1258   1.412       .  A
C1254      C1255   1.406       .  A
C1254      C1259   1.451       .  S
C1255      C1256   1.415       .  A
C1255      C1262   1.453       .  S
C1256      C1257   1.414       .  A
C1257      C1258   1.413       .  A
C1257      C1260   1.450       .  S
C1258      C1261   1.451       .  S
C1259      N1266   1.157       .  T
C1260      N1265   1.157       .  T
C1261      N1263   1.157       .  T
C1262      N1264   1.157       .  T
C1267      C1268   1.418       .  A
C1267      C1272   1.417       .  A
C1268      C1269   1.408       .  A
C1268      C1273   1.453       .  S
C1269      C1270   1.408       .  A
C1269      C1276   1.450       .  S
C1270      C1271   1.414       .  A
C1271      C1272   1.417       .  A
C1271      C1274   1.451       .  S
C1272      C1275   1.450       .  S
C1273      N1280   1.157       .  T
C1274      N1279   1.157       .  T
C1275      N1277   1.157       .  T
C1276      N1278   1.156       .  T
C1281      C1282   1.410       .  A
C1281      C1286   1.415       .  A
C1282      C1283   1.412       .  A
C1282      C1287   1.453       .  S
C1283      C1284   1.419       .  A
C1283      C1290   1.448       .  S
C1284      C1285   1.419       .  A
C1285      C1286   1.421       .  A
C1285      C1288   1.449       .  S
C1286      C1289   1.450       .  S
C1287      N1294   1.157       .  T
C1288      N1293   1.157       .  T
C1289      N1291   1.157       .  T
C1290      N1292   1.156       .  T
C1295      C1296   1.419       .  A
C1295      C1300   1.414       .  A
C1296      C1297   1.414       .  A
C1296      C1301   1.452       .  S
C1297      C1298   1.410       .  A
C1297      C1304   1.451       .  S
C1298      C1299   1.414       .  A
C1299      C1300   1.417       .  A
C1299      C1302   1.449       .  S
C1300      C1303   1.450       .  S
C1301      N1308   1.157       .  T
C1302      N1307   1.157       .  T
C1303      N1305   1.157       .  T
C1304      N1306   1.157       .  T
C1309      C1310   1.415       .  A
C1309      C1314   1.410       .  A
C1310      C1311   1.414       .  A
C1310      C1315   1.452       .  S
C1311      C1312   1.418       .  A
C1311      C1318   1.450       .  S
C1312      C1313   1.421       .  A
C1313      C1314   1.412       .  A
C1313      C1316   1.453       .  S
C1314      C1317   1.451       .  S
C1315      N1322   1.157       .  T
C1316      N1321   1.157       .  T
C1317      N1319   1.157       .  T
C1318      N1320   1.157       .  T
C1323      C1324   1.413       .  A
C1323      C1328   1.413       .  A
C1324      C1325   1.412       .  A
C1324      C1329   1.452       .  S
C1325      C1326   1.415       .  A
C1325      C1332   1.452       .  S
C1326      C1327   1.415       .  A
C1327      C1328   1.412       .  A
C1327      C1330   1.451       .  S
C1328      C1331   1.452       .  S
C1329      N1336   1.157       .  T
C1330      N1335   1.157       .  T
C1331      N1333   1.157   1_565  T
C1332      N1334   1.157       .  T
C1337      C1338   1.418       .  A
C1337      C1342   1.413       .  A
C1338      C1339   1.414       .  A
C1338      C1343   1.452       .  S
C1339      C1340   1.413       .  A
C1339      C1346   1.452       .  S
C1340      C1341   1.416       .  A
C1341      C1342   1.413       .  A
C1341      C1344   1.452       .  S
C1342      C1345   1.451       .  S
C1343      N1350   1.158       .  T
C1344      N1349   1.157       .  T
C1345      N1347   1.157       .  T
C1346      N1348   1.157       .  T
C1351      C1352   1.412       .  A
C1351      C1356   1.414       .  A
C1352      C1353   1.413       .  A
C1352      C1357   1.451       .  S
C1353      C1354   1.419       .  A
C1353      C1360   1.452       .  S
C1354      C1355   1.417       .  A
C1355      C1356   1.417       .  A
C1355      C1358   1.450       .  S
C1356      C1359   1.451       .  S
C1357      N1364   1.157   1_545  T
C1358      N1363   1.157       .  T
C1359      N1361   1.157       .  T
C1360      N1362   1.158   1_545  T
C1365      C1366   1.409       .  A
C1365      C1370   1.413       .  A
C1366      C1367   1.410       .  A
C1366      C1371   1.450       .  S
C1367      C1368   1.419       .  A
C1367      C1374   1.453       .  S
C1368      C1369   1.416       .  A
C1369      C1370   1.416       .  A
C1369      C1372   1.450       .  S
C1370      C1373   1.451       .  S
C1371      N1378   1.157       .  T
C1372      N1377   1.157       .  T
C1373      N1375   1.157       .  T
C1374      N1376   1.158       .  T
C1379      C1380   1.419       .  A
C1379      C1384   1.414       .  A
C1380      C1381   1.416       .  A
C1380      C1385   1.452       .  S
C1381      C1382   1.415       .  A
C1381      C1388   1.451       .  S
C1382      C1383   1.419       .  A
C1383      C1384   1.415       .  A
C1383      C1386   1.452       .  S
C1384      C1387   1.450       .  S
C1385      N1392   1.157       .  T
C1386      N1391   1.157       .  T
C1387      N1389   1.157       .  T
C1388      N1390   1.157       .  T
C1393      C1394   1.413       .  A
C1393      C1398   1.414       .  A
C1394      C1395   1.410       .  A
C1394      C1399   1.452       .  S
C1395      C1396   1.413       .  A
C1395      C1402   1.450       .  S
C1396      C1397   1.416       .  A
C1397      C1398   1.418       .  A
C1397      C1400   1.451       .  S
C1398      C1401   1.450       .  S
C1399      N1406   1.157       .  T
C1400      N1405   1.157       .  T
C1401      N1403   1.157       .  T
C1402      N1404   1.157       .  T
C1407      C1408   1.416       .  A
C1407      C1412   1.416       .  A
C1408      C1409   1.418       .  A
C1408      C1413   1.450       .  S
C1409      C1410   1.416       .  A
C1409      C1416   1.450       .  S
C1410      C1411   1.416       .  A
C1411      C1412   1.410       .  A
C1411      C1414   1.453       .  S
C1412      C1415   1.453       .  S
C1413      N1420   1.157       .  T
C1414      N1419   1.158       .  T
C1415      N1417   1.158       .  T
C1416      N1418   1.157       .  T
C1421      C1422   1.416       .  A
C1421      C1426   1.419       .  A
C1422      C1423   1.410       .  A
C1422      C1427   1.453       .  S
C1423      C1424   1.416       .  A
C1423      C1430   1.453       .  S
C1424      C1425   1.414       .  A
C1425      C1426   1.411       .  A
C1425      C1428   1.453       .  S
C1426      C1429   1.452       .  S
C1427      N1434   1.158       .  T
C1428      N1433   1.158       .  T
C1429      N1431   1.157       .  T
C1430      N1432   1.157       .  T
C1435      C1436   1.417       .  A
C1435      C1440   1.414       .  A
C1436      C1437   1.411       .  A
C1436      C1441   1.453       .  S
C1437      C1438   1.412       .  A
C1437      C1444   1.451       .  S
C1438      C1439   1.418       .  A
C1439      C1440   1.413       .  A
C1439      C1442   1.453       .  S
C1440      C1443   1.450       .  S
C1441      N1448   1.157       .  T
C1442      N1447   1.158       .  T
C1443      N1445   1.157       .  T
C1444      N1446   1.157       .  T
C1449      C1450   1.413       .  A
C1449      C1454   1.415       .  A
C1450      C1451   1.410   1_556  A
C1450      C1455   1.453       .  S
C1451      C1452   1.417       .  A
C1451      C1458   1.451       .  S
C1452      C1453   1.418       .  A
C1453      C1454   1.421   1_554  A
C1453      C1456   1.450       .  S
C1454      C1457   1.450       .  S
C1455      N1462   1.157       .  T
C1456      N1461   1.158       .  T
C1457      N1459   1.157       .  T
C1458      N1460   1.157       .  T
C1463      C1464   1.424       .  A
C1463      C1468   1.422       .  A
C1464      C1465   1.414       .  A
C1464      C1469   1.452       .  S
C1465      C1466   1.409       .  A
C1465      C1472   1.451       .  S
C1466      C1467   1.413       .  A
C1467      C1468   1.416       .  A
C1467      C1470   1.452       .  S
C1468      C1471   1.451       .  S
C1469      N1476   1.157       .  T
C1470      N1475   1.157       .  T
C1471      N1473   1.158       .  T
C1472      N1474   1.157       .  T
C1477      C1478   1.417       .  A
C1477      C1482   1.414       .  A
C1478      C1479   1.418   1_556  A
C1478      C1483   1.450       .  S
C1479      C1480   1.414       .  A
C1479      C1486   1.450       .  S
C1480      C1481   1.413       .  A
C1481      C1482   1.411   1_554  A
C1481      C1484   1.451       .  S
C1482      C1485   1.451       .  S
C1483      N1490   1.157       .  T
C1484      N1489   1.157       .  T
C1485      N1487   1.157       .  T
C1486      N1488   1.157       .  T
C1491      C1492   1.417       .  A
C1491      C1496   1.412       .  A
C1492      C1493   1.412       .  A
C1492      C1497   1.452       .  S
C1493      C1494   1.411       .  A
C1493      C1500   1.451       .  S
C1494      C1495   1.414       .  A
C1495      C1496   1.412       .  A
C1495      C1498   1.452       .  S
C1496      C1499   1.451       .  S
C1497      N1504   1.157       .  T
C1498      N1503   1.157       .  T
C1499      N1501   1.157       .  T
C1500      N1502   1.157       .  T
C1505      C1506   1.421       .  A
C1505      C1510   1.413       .  A
C1506      C1507   1.415       .  A
C1506      C1511   1.452       .  S
C1507      C1508   1.410       .  A
C1507      C1514   1.451       .  S
C1508      C1509   1.416       .  A
C1509      C1510   1.413       .  A
C1509      C1512   1.452       .  S
C1510      C1513   1.450       .  S
C1511      N1518   1.157       .  T
C1512      N1517   1.157       .  T
C1513      N1515   1.157       .  T
C1514      N1516   1.157       .  T
C1519      C1520   1.413   1_565  A
C1519      C1524   1.420       .  A
C1520      C1521   1.413       .  A
C1520      C1525   1.451       .  S
C1521      C1522   1.418       .  A
C1521      C1528   1.452       .  S
C1522      C1523   1.413   1_545  A
C1523      C1524   1.416       .  A
C1523      C1526   1.452       .  S
C1524      C1527   1.452       .  S
C1525      N1532   1.157       .  T
C1526      N1531   1.158       .  T
C1527      N1529   1.157       .  T
C1528      N1530   1.157       .  T
C1533      C1534   1.414       .  A
C1533      C1538   1.416       .  A
C1534      C1535   1.414   1_556  A
C1534      C1539   1.452       .  S
C1535      C1536   1.416       .  A
C1535      C1542   1.451       .  S
C1536      C1537   1.415       .  A
C1537      C1538   1.418   1_554  A
C1537      C1540   1.450       .  S
C1538      C1541   1.451       .  S
C1539      N1546   1.158       .  T
C1540      N1545   1.157       .  T
C1541      N1543   1.157       .  T
C1542      N1544   1.157       .  T
C1547      C1548   1.406       .  A
C1547      C1552   1.414   1_545  A
C1548      C1549   1.410   1_455  A
C1548      C1553   1.451       .  S
C1549      C1550   1.418   1_545  A
C1549      C1556   1.449       .  S
C1550      C1551   1.416       .  A
C1551      C1552   1.418   1_655  A
C1551      C1554   1.450       .  S
C1552      C1555   1.450       .  S
C1553      N1560   1.157       .  T
C1554      N1559   1.157       .  T
C1555      N1557   1.157       .  T
C1556      N1558   1.156       .  T
C1561      C1562   1.414       .  A
C1561      C1566   1.413       .  A
C1562      C1563   1.417   1_556  A
C1562      C1567   1.450       .  S
C1563      C1564   1.415       .  A
C1563      C1570   1.451       .  S
C1564      C1565   1.411       .  A
C1565      C1566   1.410   1_554  A
C1565      C1568   1.450       .  S
C1566      C1569   1.451       .  S
C1567      N1574   1.157       .  T
C1568      N1573   1.157       .  T
C1569      N1571   1.157       .  T
C1570      N1572   1.158       .  T
C1575      C1576   1.408       .  A
C1575      C1580   1.411       .  A
C1576      C1577   1.411       .  A
C1576      C1581   1.452       .  S
C1577      C1578   1.421       .  A
C1577      C1584   1.452       .  S
C1578      C1579   1.417       .  A
C1579      C1580   1.409       .  A
C1579      C1582   1.452       .  S
C1580      C1583   1.453       .  S
C1581      N1588   1.157       .  T
C1582      N1587   1.157       .  T
C1583      N1585   1.157       .  T
C1584      N1586   1.158       .  T
C1589      C1590   1.418       .  A
C1589      C1594   1.428       .  A
C1590      C1591   1.412       .  A
C1590      C1595   1.452       .  S
C1591      C1592   1.426       .  A
C1591      C1598   1.455       .  S
C1592      C1593   1.418       .  A
C1593      C1594   1.415       .  A
C1593      C1596   1.455       .  S
C1594      C1597   1.454       .  S
C1595      N1602   1.157       .  T
C1596      N1601   1.158       .  T
C1597      N1599   1.158       .  T
C1598      N1600   1.158       .  T
C1603      C1604   1.420       .  A
C1603      C1608   1.417       .  A
C1604      C1605   1.414   1_655  A
C1604      C1609   1.454       .  S
C1605      C1606   1.427       .  A
C1605      C1612   1.455       .  S
C1606      C1607   1.427       .  A
C1607      C1608   1.421   1_455  A
C1607      C1610   1.451       .  S
C1608      C1611   1.452       .  S
C1609      N1616   1.157       .  T
C1610      N1615   1.157       .  T
C1611      N1613   1.157       .  T
C1612      N1614   1.158       .  T
C1617      C1618   1.413       .  A
C1617      C1622   1.415       .  A
C1618      C1619   1.418       .  A
C1618      C1623   1.450       .  S
C1619      C1620   1.416       .  A
C1619      C1626   1.450       .  S
C1620      C1621   1.413       .  A
C1621      C1622   1.413       .  A
C1621      C1624   1.450       .  S
C1622      C1625   1.452       .  S
C1623      N1630   1.157       .  T
C1624      N1629   1.157       .  T
C1625      N1627   1.157       .  T
C1626      N1628   1.157       .  T
C1631      C1632   1.413       .  A
C1631      C1636   1.410       .  A
C1632      C1633   1.410   1_655  A
C1632      C1637   1.450       .  S
C1633      C1634   1.409       .  A
C1633      C1640   1.450       .  S
C1634      C1635   1.412       .  A
C1635      C1636   1.410   1_455  A
C1635      C1638   1.449       .  S
C1636      C1639   1.451       .  S
C1637      N1644   1.157       .  T
C1638      N1643   1.157       .  T
C1639      N1641   1.157       .  T
C1640      N1642   1.157       .  T
C1645      C1646   1.412       .  A
C1645      C1650   1.417       .  A
C1646      C1647   1.414       .  A
C1646      C1651   1.450       .  S
C1647      C1648   1.421       .  A
C1647      C1654   1.452       .  S
C1648      C1649   1.417       .  A
C1649      C1650   1.416       .  A
C1649      C1652   1.451       .  S
C1650      C1653   1.452       .  S
C1651      N1658   1.157       .  T
C1652      N1657   1.157       .  T
C1653      N1655   1.157       .  T
C1654      N1656   1.158       .  T
C1659      C1660   1.413       .  A
C1659      C1664   1.414       .  A
C1660      C1661   1.409       .  A
C1660      C1665   1.452       .  S
C1661      C1662   1.412       .  A
C1661      C1668   1.449       .  S
C1662      C1663   1.415       .  A
C1663      C1664   1.417       .  A
C1663      C1666   1.450       .  S
C1664      C1667   1.450       .  S
C1665      N1672   1.157       .  T
C1666      N1671   1.157       .  T
C1667      N1669   1.157       .  T
C1668      N1670   1.157       .  T
C1673      C1674   1.415       .  A
C1673      C1678   1.420       .  A
C1674      C1675   1.411       .  A
C1674      C1679   1.453       .  S
C1675      C1676   1.419       .  A
C1675      C1682   1.453       .  S
C1676      C1677   1.415       .  A
C1677      C1678   1.413       .  A
C1677      C1680   1.451       .  S
C1678      C1681   1.453       .  S
C1679      N1686   1.158       .  T
C1680      N1685   1.157       .  T
C1681      N1683   1.158       .  T
C1682      N1684   1.157       .  T
C1687      C1688   1.413       .  A
C1687      C1692   1.412       .  A
C1688      C1689   1.409       .  A
C1688      C1693   1.452       .  S
C1689      C1690   1.415       .  A
C1689      C1696   1.452       .  S
C1690      C1691   1.416       .  A
C1691      C1692   1.411       .  A
C1691      C1694   1.452       .  S
C1692      C1695   1.452       .  S
C1693      N1700   1.157       .  T
C1694      N1699   1.157       .  T
C1695      N1697   1.158       .  T
C1696      N1698   1.158       .  T
C1701      C1702   1.414   1_565  A
C1701      C1706   1.410       .  A
C1702      C1703   1.416   1_455  A
C1702      C1707   1.450       .  S
C1703      C1704   1.414   1_545  A
C1703      C1710   1.450       .  S
C1704      C1705   1.416       .  A
C1705      C1706   1.411   1_655  A
C1705      C1708   1.452       .  S
C1706      C1709   1.451       .  S
C1707      N1714   1.157       .  T
C1708      N1713   1.157       .  T
C1709      N1711   1.157       .  T
C1710      N1712   1.157       .  T
C1715      C1716   1.415   1_545  A
C1715      C1720   1.414   1_545  A
C1716      C1717   1.417       .  A
C1716      C1721   1.451   1_565  S
C1717      C1718   1.416       .  A
C1717      C1724   1.451       .  S
C1718      C1719   1.417       .  A
C1719      C1720   1.410       .  A
C1719      C1722   1.453       .  S
C1720      C1723   1.453   1_565  S
C1721      N1728   1.157       .  T
C1722      N1727   1.157       .  T
C1723      N1725   1.158       .  T
C1724      N1726   1.157       .  T
C1729      C1730   1.413       .  A
C1729      C1734   1.413       .  A
C1730      C1731   1.407       .  A
C1730      C1735   1.453       .  S
C1731      C1732   1.412       .  A
C1731      C1738   1.453       .  S
C1732      C1733   1.411       .  A
C1733      C1734   1.417       .  A
C1733      C1736   1.450       .  S
C1734      C1737   1.448       .  S
C1735      N1742   1.157       .  T
C1736      N1741   1.157       .  T
C1737      N1739   1.157       .  T
C1738      N1740   1.157       .  T
C1743      C1744   1.414       .  A
C1743      C1748   1.411       .  A
C1744      C1745   1.414       .  A
C1744      C1749   1.448       .  S
C1745      C1746   1.410       .  A
C1745      C1752   1.451       .  S
C1746      C1747   1.415       .  A
C1747      C1748   1.414       .  A
C1747      C1750   1.451       .  S
C1748      C1751   1.450       .  S
C1749      N1756   1.156       .  T
C1750      N1755   1.157       .  T
C1751      N1753   1.157       .  T
C1752      N1754   1.157       .  T
C1757      C1758   1.414       .  A
C1757      C1762   1.413       .  A
C1758      C1759   1.413       .  A
C1758      C1763   1.451       .  S
C1759      C1760   1.412       .  A
C1759      C1766   1.449       .  S
C1760      C1761   1.415       .  A
C1761      C1762   1.417       .  A
C1761      C1764   1.451       .  S
C1762      C1765   1.449       .  S
C1763      N1770   1.157       .  T
C1764      N1769   1.157       .  T
C1765      N1767   1.157       .  T
C1766      N1768   1.157       .  T
C1771      C1772   1.410       .  A
C1771      C1776   1.411       .  A
C1772      C1773   1.412       .  A
C1772      C1777   1.451       .  S
C1773      C1774   1.412       .  A
C1773      C1780   1.449       .  S
C1774      C1775   1.413       .  A
C1775      C1776   1.413       .  A
C1775      C1778   1.450       .  S
C1776      C1779   1.451       .  S
C1777      N1784   1.157       .  T
C1778      N1783   1.157       .  T
C1779      N1781   1.157       .  T
C1780      N1782   1.156       .  T
C1785      C1786   1.416       .  A
C1785      C1790   1.420       .  A
C1786      C1787   1.413       .  A
C1786      C1791   1.452       .  S
C1787      C1788   1.418       .  A
C1787      C1794   1.452       .  S
C1788      C1789   1.416       .  A
C1789      C1790   1.414       .  A
C1789      C1792   1.453       .  S
C1790      C1793   1.453       .  S
C1791      N1798   1.157   1_545  T
C1792      N1797   1.158       .  T
C1793      N1795   1.158   1_545  T
C1794      N1796   1.157       .  T
C1799      C1800   1.418       .  A
C1799      C1804   1.422       .  A
C1800      C1801   1.418       .  A
C1800      C1805   1.450       .  S
C1801      C1802   1.415       .  A
C1801      C1808   1.451       .  S
C1802      C1803   1.413       .  A
C1803      C1804   1.412       .  A
C1803      C1806   1.454       .  S
C1804      C1807   1.453       .  S
C1805      N1812   1.157       .  T
C1806      N1811   1.158       .  T
C1807      N1809   1.158       .  T
C1808      N1810   1.157       .  T
C1813      C1814   1.415       .  A
C1813      C1818   1.415       .  A
C1814      C1815   1.410   1_556  A
C1814      C1819   1.452       .  S
C1815      C1816   1.416       .  A
C1815      C1822   1.452       .  S
C1816      C1817   1.418       .  A
C1817      C1818   1.420   1_554  A
C1817      C1820   1.450       .  S
C1818      C1821   1.449       .  S
C1819      N1826   1.157       .  T
C1820      N1825   1.158       .  T
C1821      N1823   1.157       .  T
C1822      N1824   1.157       .  T
C1827      C1828   1.415       .  A
C1827      C1832   1.421       .  A
C1828      C1829   1.418       .  A
C1828      C1833   1.450       .  S
C1829      C1830   1.418       .  A
C1829      C1836   1.451       .  S
C1830      C1831   1.414       .  A
C1831      C1832   1.409       .  A
C1831      C1834   1.454       .  S
C1832      C1835   1.454       .  S
C1833      N1840   1.157       .  T
C1834      N1839   1.157       .  T
C1835      N1837   1.158       .  T
C1836      N1838   1.157       .  T
C1841      C1842   1.416       .  A
C1841      C1846   1.413       .  A
C1842      C1843   1.412       .  A
C1842      C1847   1.452       .  S
C1843      C1844   1.416       .  A
C1843      C1850   1.451       .  S
C1844      C1845   1.421       .  A
C1845      C1846   1.415       .  A
C1845      C1848   1.453       .  S
C1846      C1849   1.450       .  S
C1847      N1854   1.157       .  T
C1848      N1853   1.158       .  T
C1849      N1851   1.157       .  T
C1850      N1852   1.157       .  T
C1855      C1856   1.415       .  A
C1855      C1860   1.413       .  A
C1856      C1857   1.419   1_556  A
C1856      C1861   1.450       .  S
C1857      C1858   1.415       .  A
C1857      C1864   1.450       .  S
C1858      C1859   1.412       .  A
C1859      C1860   1.409   1_554  A
C1859      C1862   1.451       .  S
C1860      C1863   1.450       .  S
C1861      N1868   1.157       .  T
C1862      N1867   1.157       .  T
C1863      N1865   1.157       .  T
C1864      N1866   1.157       .  T
C1869      C1870   1.415       .  A
C1869      C1874   1.414       .  A
C1870      C1871   1.414       .  A
C1870      C1875   1.452       .  S
C1871      C1872   1.416       .  A
C1871      C1878   1.452       .  S
C1872      C1873   1.415       .  A
C1873      C1874   1.409       .  A
C1873      C1876   1.453       .  S
C1874      C1877   1.452       .  S
C1875      N1882   1.158   1_565  T
C1876      N1881   1.157       .  T
C1877      N1879   1.157       .  T
C1878      N1880   1.158       .  T
C1883      C1884   1.415       .  A
C1883      C1888   1.411       .  A
C1884      C1885   1.414       .  A
C1884      C1889   1.451       .  S
C1885      C1886   1.415       .  A
C1885      C1892   1.451       .  S
C1886      C1887   1.418       .  A
C1887      C1888   1.415       .  A
C1887      C1890   1.448       .  S
C1888      C1891   1.452       .  S
C1889      N1896   1.157       .  T
C1890      N1895   1.156       .  T
C1891      N1893   1.158       .  T
C1892      N1894   1.157       .  T
C1897      C1898   1.409       .  A
C1897      C1902   1.412       .  A
C1898      C1899   1.409       .  A
C1898      C1903   1.453       .  S
C1899      C1900   1.420       .  A
C1899      C1906   1.453       .  S
C1900      C1901   1.416       .  A
C1901      C1902   1.416       .  A
C1901      C1904   1.450       .  S
C1902      C1905   1.451       .  S
C1903      N1910   1.157   1_545  T
C1904      N1909   1.157       .  T
C1905      N1907   1.157       .  T
C1906      N1908   1.158       .  T
C1911      C1912   1.413       .  A
C1911      C1916   1.414       .  A
C1912      C1913   1.411       .  A
C1912      C1917   1.453       .  S
C1913      C1914   1.417       .  A
C1913      C1920   1.452       .  S
C1914      C1915   1.416       .  A
C1915      C1916   1.415       .  A
C1915      C1918   1.451       .  S
C1916      C1919   1.451       .  S
C1917      N1924   1.157       .  T
C1918      N1923   1.157       .  T
C1919      N1921   1.157       .  T
C1920      N1922   1.157       .  T
C1925      C1926   1.411       .  A
C1925      C1930   1.412       .  A
C1926      C1927   1.410       .  A
C1926      C1931   1.452       .  S
C1927      C1928   1.413       .  A
C1927      C1934   1.451       .  S
C1928      C1929   1.415       .  A
C1929      C1930   1.417       .  A
C1929      C1932   1.451       .  S
C1930      C1933   1.448       .  S
C1931      N1938   1.157       .  T
C1932      N1937   1.157       .  T
C1933      N1935   1.157       .  T
C1934      N1936   1.157       .  T
C1939      C1940   1.418       .  A
C1939      C1944   1.421       .  A
C1940      C1941   1.418       .  A
C1940      C1945   1.450       .  S
C1941      C1942   1.416       .  A
C1941      C1948   1.448       .  S
C1942      C1943   1.418       .  A
C1943      C1944   1.411       .  A
C1943      C1946   1.455       .  S
C1944      C1947   1.453       .  S
C1945      N1952   1.157       .  T
C1946      N1951   1.158       .  T
C1947      N1949   1.158       .  T
C1948      N1950   1.156       .  T
C1953      C1954   1.415       .  A
C1953      C1958   1.418       .  A
C1954      C1955   1.413       .  A
C1954      C1959   1.453       .  S
C1955      C1956   1.423       .  A
C1955      C1962   1.454       .  S
C1956      C1957   1.416       .  A
C1957      C1958   1.419       .  A
C1957      C1960   1.450       .  S
C1958      C1961   1.449       .  S
C1959      N1966   1.157       .  T
C1960      N1965   1.157       .  T
C1961      N1963   1.157       .  T
C1962      N1964   1.158       .  T
C1967      C1968   1.413       .  A
C1967      C1972   1.414       .  A
C1968      C1969   1.417       .  A
C1968      C1973   1.450       .  S
C1969      C1970   1.415       .  A
C1969      C1976   1.450       .  S
C1970      C1971   1.412       .  A
C1971      C1972   1.414       .  A
C1971      C1974   1.450       .  S
C1972      C1975   1.451       .  S
C1973      N1980   1.157       .  T
C1974      N1979   1.157       .  T
C1975      N1977   1.157       .  T
C1976      N1978   1.157       .  T
C1981      C1982   1.415       .  A
C1981      C1986   1.418       .  A
C1982      C1983   1.414       .  A
C1982      C1987   1.451       .  S
C1983      C1984   1.415       .  A
C1983      C1990   1.451       .  S
C1984      C1985   1.410       .  A
C1985      C1986   1.413       .  A
C1985      C1988   1.451       .  S
C1986      C1989   1.450       .  S
C1987      N1994   1.157       .  T
C1988      N1993   1.157   1_565  T
C1989      N1991   1.157       .  T
C1990      N1992   1.157       .  T
C1995      C1996   1.417       .  A
C1995      C2000   1.412       .  A
C1996      C1997   1.418       .  A
C1996      C2001   1.451       .  S
C1997      C1998   1.415       .  A
C1997      C2004   1.451       .  S
C1998      C1999   1.415       .  A
C1999      C2000   1.412       .  A
C1999      C2002   1.448       .  S
C2000      C2003   1.451       .  S
C2001      N2008   1.157       .  T
C2002      N2007   1.156       .  T
C2003      N2005   1.157       .  T
C2004      N2006   1.157       .  T
C2009      C2010   1.414       .  A
C2009      C2014   1.410       .  A
C2010      C2011   1.417       .  A
C2010      C2015   1.451       .  S
C2011      C2012   1.416       .  A
C2011      C2018   1.450       .  S
C2012      C2013   1.420       .  A
C2013      C2014   1.410       .  A
C2013      C2016   1.453       .  S
C2014      C2017   1.452       .  S
C2015      N2022   1.157       .  T
C2016      N2021   1.157       .  T
C2017      N2019   1.157       .  T
C2018      N2020   1.157       .  T
C2023      C2024   1.408       .  A
C2023      C2028   1.414       .  A
C2024      C2025   1.408       .  A
C2024      C2029   1.451       .  S
C2025      C2026   1.418       .  A
C2025      C2032   1.452       .  S
C2026      C2027   1.415       .  A
C2027      C2028   1.416       .  A
C2027      C2030   1.450       .  S
C2028      C2031   1.451       .  S
C2029      N2036   1.157       .  T
C2030      N2035   1.157       .  T
C2031      N2033   1.157       .  T
C2032      N2034   1.157       .  T
C2037      C2038   1.410       .  A
C2037      C2042   1.415       .  A
C2038      C2039   1.411   1_556  A
C2038      C2043   1.450       .  S
C2039      C2040   1.413       .  A
C2039      C2046   1.449       .  S
C2040      C2041   1.415       .  A
C2041      C2042   1.418   1_554  A
C2041      C2044   1.450       .  S
C2042      C2045   1.451       .  S
C2043      N2050   1.157       .  T
C2044      N2049   1.157       .  T
C2045      N2047   1.158       .  T
C2046      N2048   1.157       .  T
C2051      C2052   1.416       .  A
C2051      C2056   1.417       .  A
C2052      C2053   1.416       .  A
C2052      C2057   1.450       .  S
C2053      C2054   1.411       .  A
C2053      C2060   1.450       .  S
C2054      C2055   1.410       .  A
C2055      C2056   1.412       .  A
C2055      C2058   1.452       .  S
C2056      C2059   1.451       .  S
C2057      N2064   1.157       .  T
C2058      N2063   1.157       .  T
C2059      N2061   1.157       .  T
C2060      N2062   1.157       .  T
C2065      C2066   1.418       .  A
C2065      C2070   1.415       .  A
C2066      C2067   1.412       .  A
C2066      C2071   1.452       .  S
C2067      C2068   1.411       .  A
C2067      C2074   1.451       .  S
C2068      C2069   1.413       .  A
C2069      C2070   1.415       .  A
C2069      C2072   1.451       .  S
C2070      C2073   1.450       .  S
C2071      N2078   1.158       .  T
C2072      N2077   1.157       .  T
C2073      N2075   1.157       .  T
C2074      N2076   1.157       .  T
C2079      C2080   1.414       .  A
C2079      C2084   1.414       .  A
C2080      C2081   1.416       .  A
C2080      C2085   1.451       .  S
C2081      C2082   1.414       .  A
C2081      C2088   1.449       .  S
C2082      C2083   1.419       .  A
C2083      C2084   1.414       .  A
C2083      C2086   1.453       .  S
C2084      C2087   1.452       .  S
C2085      N2092   1.157       .  T
C2086      N2091   1.158       .  T
C2087      N2089   1.158       .  T
C2088      N2090   1.157       .  T
C2093      C2094   1.417       .  A
C2093      C2098   1.417       .  A
C2094      C2095   1.420   1_556  A
C2094      C2099   1.450       .  S
C2095      C2096   1.416       .  A
C2095      C2102   1.450       .  S
C2096      C2097   1.414       .  A
C2097      C2098   1.410   1_554  A
C2097      C2100   1.453       .  S
C2098      C2101   1.453       .  S
C2099      N2106   1.157       .  T
C2100      N2105   1.157       .  T
C2101      N2103   1.157       .  T
C2102      N2104   1.158       .  T
C2107      C2108   1.416       .  A
C2107      C2112   1.413       .  A
C2108      C2109   1.415       .  A
C2108      C2113   1.451       .  S
C2109      C2110   1.413       .  A
C2109      C2116   1.451       .  S
C2110      C2111   1.413       .  A
C2111      C2112   1.413       .  A
C2111      C2114   1.449       .  S
C2112      C2115   1.452       .  S
C2113      N2120   1.157       .  T
C2114      N2119   1.157       .  T
C2115      N2117   1.157       .  T
C2116      N2118   1.157       .  T
C2121      C2122   1.413       .  A
C2121      C2126   1.414       .  A
C2122      C2123   1.413       .  A
C2122      C2127   1.452       .  S
C2123      C2124   1.415       .  A
C2123      C2130   1.451       .  S
C2124      C2125   1.416       .  A
C2125      C2126   1.414       .  A
C2125      C2128   1.452       .  S
C2126      C2129   1.451       .  S
C2127      N2134   1.157   1_545  T
C2128      N2133   1.158       .  T
C2129      N2131   1.157       .  T
C2130      N2132   1.157       .  T
C2135      C2136   1.426       .  A
C2135      C2140   1.418       .  A
C2136      C2137   1.410       .  A
C2136      C2141   1.454       .  S
C2137      C2138   1.410       .  A
C2137      C2144   1.454       .  S
C2138      C2139   1.417       .  A
C2139      C2140   1.419       .  A
C2139      C2142   1.452       .  S
C2140      C2143   1.450       .  S
C2141      N2148   1.158       .  T
C2142      N2147   1.158       .  T
C2143      N2145   1.157       .  T
C2144      N2146   1.157       .  T
C2149      C2150   1.413       .  A
C2149      C2154   1.408       .  A
C2150      C2151   1.418       .  A
C2150      C2155   1.450       .  S
C2151      C2152   1.417       .  A
C2151      C2158   1.450       .  S
C2152      C2153   1.419       .  A
C2153      C2154   1.412       .  A
C2153      C2156   1.452       .  S
C2154      C2157   1.450       .  S
C2155      N2162   1.157       .  T
C2156      N2161   1.157       .  T
C2157      N2159   1.157       .  T
C2158      N2160   1.157       .  T
C2163      C2164   1.412       .  A
C2163      C2168   1.415       .  A
C2164      C2165   1.412       .  A
C2164      C2169   1.451       .  S
C2165      C2166   1.420       .  A
C2165      C2172   1.452       .  S
C2166      C2167   1.416       .  A
C2167      C2168   1.411       .  A
C2167      C2170   1.451       .  S
C2168      C2171   1.453       .  S
C2169      N2176   1.157       .  T
C2170      N2175   1.157       .  T
C2171      N2173   1.157       .  T
C2172      N2174   1.157       .  T
