geometry optimzed in LAMMPS
_audit_creation_date              2020-12-01 
_audit_creation_method            'lammps2cif' 
_symmetry_space_group_name_H-M    'P1' 
_symmetry_Int_Tables_number       1 
_symmetry_cell_setting            triclinic 
loop_ 
_symmetry_equiv_pos_as_xyz 
  x,y,z 
_cell_length_a                    66.91807067 
_cell_length_b                    34.45655745599655 
_cell_length_c                    69.01127402806637 
_cell_angle_alpha                 89.98803295972624 
_cell_angle_beta                  89.84298527479531 
_cell_angle_gamma                 90.02639396159469 
loop_ 
_atom_site_label 
_atom_site_type_symbol 
_atom_site_fract_x 
_atom_site_fract_y 
_atom_site_fract_z 
_atom_site_charge 
Zn1        Zn  0.64918374  0.26931832  0.88843059     1.49700
Zn2        Zn  0.63933484  0.33002981  0.85417564     1.49400
Zn3        Zn  0.61234137  0.25607485  0.85936313     1.49100
Zn4        Zn  0.60943490  0.32339678  0.88997588     1.49500
O5          O  0.62778729  0.29454213  0.87320669    -1.83900
O6          O  0.67626418  0.29667975  0.88300513    -0.74500
O7          O  0.63491915  0.31257088  0.82645502    -0.74400
O8          O  0.62091685  0.20311807  0.86684498    -0.73900
O9          O  0.66878817  0.33564481  0.85839386    -0.74600
O10         O  0.64942891  0.21022633  0.88313094    -0.74200
O11         O  0.61636150  0.25994675  0.83073977    -0.74700
O12         O  0.58001691  0.30938203  0.88518483    -0.74100
O13         O  0.62937304  0.38433242  0.85846069    -0.74900
O14         O  0.58299065  0.26033266  0.86461437    -0.74300
O15         O  0.61398272  0.38123478  0.88704038    -0.74700
O16         O  0.61542083  0.31067861  0.91756604    -0.74700
O17         O  0.64304351  0.27483310  0.91732605    -0.74400
C18         C  0.68131203  0.32260976  0.87060247     0.77400
C19         C  0.62555350  0.28341160  0.81963803     0.77800
C20         C  0.63602201  0.18884823  0.87534530     0.76800
C21         C  0.57216303  0.28256498  0.87494094     0.77200
C22         C  0.62155477  0.40078995  0.87317514     0.78300
C23         C  0.62897585  0.29195457  0.92647205     0.77400
Zn24       Zn  0.61411208  0.75460056  0.85877591     1.49700
Zn25       Zn  0.64869162  0.76817700  0.88972220     1.49400
Zn26       Zn  0.64234221  0.82643089  0.85328646     1.49100
Zn27       Zn  0.61051611  0.82545364  0.88829637     1.49500
O28         O  0.62901846  0.79386648  0.87268177    -1.83900
O29         O  0.62394679  0.70236028  0.86550527    -0.74500
O30         O  0.67640739  0.79004032  0.88446059    -0.74400
O31         O  0.63711195  0.80910521  0.82557763    -0.73900
O32         O  0.64857146  0.70898336  0.88674823    -0.74600
O33         O  0.61682886  0.75901945  0.82984994    -0.74200
O34         O  0.67197208  0.82546158  0.85779121    -0.74700
O35         O  0.61378843  0.88269930  0.88193998    -0.74100
O36         O  0.64200529  0.77827677  0.91771527    -0.74900
O37         O  0.63417305  0.88263622  0.85646310    -0.74300
O38         O  0.61573055  0.81759090  0.91717095    -0.74700
O39         O  0.58172213  0.80944182  0.88339918    -0.74700
O40         O  0.58515743  0.75596673  0.86563601    -0.74400
C41         C  0.63725003  0.68775858  0.87636096     0.77400
C42         C  0.68320883  0.81183992  0.87101637     0.77800
C43         C  0.62663482  0.78146916  0.81869790     0.76800
C44         C  0.62349333  0.90082895  0.86880798     0.77200
C45         C  0.62864201  0.79783984  0.92653085     0.78300
C46         C  0.57431735  0.77988194  0.87492921     0.77400
Zn47       Zn  0.64901782  0.24434884  0.63943621     1.49700
Zn48       Zn  0.61137194  0.18557496  0.64202210     1.49400
Zn49       Zn  0.61462525  0.24876425  0.60781424     1.49100
Zn50       Zn  0.64325605  0.17768273  0.60810793     1.49500
O51         O  0.62946672  0.21426153  0.62458613    -1.83900
O52         O  0.64178430  0.24160412  0.66744834    -0.74500
O53         O  0.58255422  0.19960365  0.63610012    -0.74400
O54         O  0.62208586  0.30379726  0.61281044    -0.73900
O55         O  0.61617578  0.20092671  0.67007247    -0.74600
O56         O  0.64763829  0.30198287  0.63330312    -0.74200
O57         O  0.58547591  0.24415911  0.61298946    -0.74700
O58         O  0.64191609  0.19134505  0.57974130    -0.74100
O59         O  0.61502000  0.12708317  0.63887666    -0.74900
O60         O  0.61940290  0.23846136  0.57956547    -0.74300
O61         O  0.63213888  0.12466191  0.61123598    -0.74700
O62         O  0.67157411  0.17257069  0.61661835    -0.74700
O63         O  0.67710221  0.22186103  0.63676347    -0.74400
C64         C  0.62871270  0.22424949  0.67768258     0.77400
C65         C  0.57476892  0.22408771  0.62448512     0.77800
C66         C  0.63525272  0.32089499  0.62295035     0.76800
C67         C  0.63099924  0.21537124  0.57058639     0.77200
C68         C  0.62283102  0.10792686  0.62496061     0.78300
C69         C  0.68302959  0.19157082  0.62780709     0.77400
Zn70       Zn  0.61208939  0.75273582  0.60798070     1.49700
Zn71       Zn  0.61048016  0.68682226  0.64098950     1.49400
Zn72       Zn  0.64025643  0.67936391  0.60508980     1.49100
Zn73       Zn  0.64898506  0.74289100  0.63737541     1.49500
O74         O  0.62789942  0.71564746  0.62297073    -1.83900
O75         O  0.58305241  0.75076641  0.61624181    -0.74500
O76         O  0.61448502  0.62851392  0.63809744    -0.74400
O77         O  0.63438021  0.69303382  0.57743938    -0.73900
O78         O  0.58116378  0.70033601  0.63636623    -0.74600
O79         O  0.61421945  0.74413026  0.57892642    -0.74200
O80         O  0.63066847  0.62520496  0.60994176    -0.74700
O81         O  0.67644134  0.71815683  0.63278592    -0.74100
O82         O  0.61649815  0.70213477  0.66879047    -0.74900
O83         O  0.67005361  0.67649031  0.60907261    -0.74300
O84         O  0.64289100  0.74085601  0.66589065    -0.74700
O85         O  0.64903461  0.80053185  0.63111879    -0.74700
O86         O  0.62202879  0.80637350  0.61256419    -0.74400
C87         C  0.57291752  0.72796118  0.62701401     0.77400
C88         C  0.62207357  0.60888755  0.62424838     0.77800
C89         C  0.62388179  0.71897712  0.56916485     0.76800
C90         C  0.68224533  0.69200470  0.62091331     0.77200
C91         C  0.62963005  0.72433773  0.67628310     0.78300
C92         C  0.63666105  0.82122603  0.62163227     0.77400
Zn93       Zn  0.38423377  0.24736505  0.89515958     1.49700
Zn94       Zn  0.38872927  0.18566609  0.86107726     1.49400
Zn95       Zn  0.35557278  0.17568578  0.89400315     1.49100
Zn96       Zn  0.34971819  0.24201122  0.86339518     1.49500
O97         O  0.36972019  0.21284765  0.87811849    -1.83900
O98         O  0.41390225  0.24493661  0.89073008    -0.74500
O99         O  0.38587249  0.12709699  0.86414764    -0.74400
O100        O  0.35651151  0.18777678  0.92242203    -0.73900
O101        O  0.41743077  0.20200277  0.86700229    -0.74600
O102        O  0.37858097  0.23576948  0.92300207    -0.74200
O103        O  0.36656983  0.12352566  0.89030235    -0.74700
O104        O  0.32161449  0.21933450  0.86583881    -0.74100
O105        O  0.38312331  0.19914570  0.83307945    -0.74900
O106        O  0.32746846  0.16922270  0.88522994    -0.74300
O107        O  0.35653283  0.23750742  0.83539228    -0.74700
O108        O  0.35084151  0.29960908  0.86959190    -0.74700
O109        O  0.37610776  0.30198060  0.89038123    -0.74400
C110        C  0.42495503  0.22612065  0.87900290     0.77400
C111        C  0.37685163  0.10731708  0.87713438     0.77800
C112        C  0.36706680  0.21211567  0.93174030     0.76800
C113        C  0.31591301  0.18822484  0.87419320     0.77200
C114        C  0.36970645  0.22019125  0.82526936     0.78300
C115        C  0.36293968  0.31884137  0.88015301     0.77400
Zn116      Zn  0.35957402  0.67955729  0.85204130     1.49700
Zn117      Zn  0.35266170  0.74018734  0.88689291     1.49400
Zn118      Zn  0.39070397  0.68230899  0.88769035     1.49100
Zn119      Zn  0.38874176  0.74978891  0.85649810     1.49500
O120        O  0.37280047  0.71286659  0.87100120    -1.83900
O121        O  0.32994149  0.67956133  0.85639270    -0.74500
O122        O  0.35793337  0.73101279  0.91536218    -0.74400
O123        O  0.38697547  0.62512309  0.88244099    -0.73900
O124        O  0.32464569  0.71877682  0.88147702    -0.74600
O125        O  0.36761747  0.62392567  0.85629757    -0.74200
O126        O  0.38390845  0.69096184  0.91596200    -0.74700
O127        O  0.41755779  0.74641029  0.86328748    -0.74100
O128        O  0.35425847  0.79893789  0.88257716    -0.74900
O129        O  0.41998820  0.69734310  0.88400608    -0.74300
O130        O  0.38031248  0.80310084  0.86265087    -0.74700
O131        O  0.38553118  0.74521997  0.82772975    -0.74700
O132        O  0.36427465  0.69648397  0.82418706    -0.74400
C133        C  0.31825857  0.69476998  0.86881871     0.77400
C134        C  0.37061447  0.71085119  0.92473484     0.77800
C135        C  0.37744290  0.60642386  0.86947286     0.76800
C136        C  0.42796017  0.72467673  0.87419527     0.77200
C137        C  0.36666341  0.81900466  0.87266190     0.78300
C138        C  0.37486800  0.72365670  0.81696599     0.77400
Zn139      Zn  0.35388233  0.26621337  0.61354441     1.49700
Zn140      Zn  0.38843562  0.25573457  0.64490372     1.49400
Zn141      Zn  0.39192368  0.32494965  0.61548186     1.49100
Zn142      Zn  0.35852462  0.32493951  0.64927333     1.49500
O143        O  0.37305901  0.29326569  0.63050647    -1.83900
O144        O  0.35477473  0.20720644  0.61799392    -0.74500
O145        O  0.41760848  0.26019599  0.64084113    -0.74400
O146        O  0.38649702  0.31826915  0.58672005    -0.73900
O147        O  0.38085898  0.20282479  0.63769330    -0.74600
O148        O  0.36182686  0.27495447  0.58569521    -0.74200
O149        O  0.42092769  0.30913038  0.62028616    -0.74700
O150        O  0.36698599  0.38075873  0.64715198    -0.74100
O151        O  0.38353046  0.25832260  0.67300178    -0.74900
O152        O  0.38848294  0.38158120  0.62248374    -0.74300
O153        O  0.36142587  0.30551967  0.67681531    -0.74700
O154        O  0.32941741  0.32585507  0.64297071    -0.74700
O155        O  0.32555375  0.28877998  0.61687952    -0.74400
C156        C  0.36726115  0.18699267  0.62768361     0.77400
C157        C  0.42855464  0.28234217  0.63067112     0.77800
C158        C  0.37452527  0.29669685  0.57718861     0.76800
C159        C  0.37812782  0.39918520  0.63530487     0.77200
C160        C  0.37219436  0.27843470  0.68376293     0.78300
C161        C  0.31850260  0.31210709  0.62956623     0.77400
Zn162      Zn  0.38760414  0.75825995  0.60633996     1.49700
Zn163      Zn  0.35036581  0.76227799  0.63612134     1.49400
Zn164      Zn  0.38832784  0.82082421  0.64045480     1.49100
Zn165      Zn  0.35814971  0.82808593  0.60527417     1.49500
O166        O  0.37122032  0.79201644  0.62238094    -1.83900
O167        O  0.37922234  0.70348226  0.61039654    -0.74500
O168        O  0.35533994  0.76608691  0.66483857    -0.74400
O169        O  0.41751717  0.80463247  0.63758793    -0.73900
O170        O  0.35250597  0.70475127  0.62961102    -0.74600
O171        O  0.41632257  0.75944664  0.61462927    -0.74200
O172        O  0.38034597  0.80807857  0.66801230    -0.74700
O173        O  0.36847824  0.88151287  0.60883017    -0.74100
O174        O  0.32225071  0.78457074  0.63183414    -0.74900
O175        O  0.38578690  0.87910288  0.63620062    -0.74300
O176        O  0.32956748  0.83303630  0.61191875    -0.74700
O177        O  0.36046785  0.81358339  0.57735864    -0.74700
O178        O  0.38528682  0.77075705  0.57769231    -0.74400
C179        C  0.36562770  0.68602847  0.61992225     0.77400
C180        C  0.36742537  0.78520314  0.67541993     0.77800
C181        C  0.42602299  0.77892620  0.62712672     0.76800
C182        C  0.37779733  0.89837863  0.62245941     0.77200
C183        C  0.31711047  0.81484548  0.62242001     0.78300
C184        C  0.37281197  0.79180047  0.56855025     0.77400
Zn185      Zn  0.88913434  0.08420259  0.64315619     1.49700
Zn186      Zn  0.85285954  0.02329726  0.63669643     1.49400
Zn187      Zn  0.86015178  0.09105152  0.60660649     1.49100
Zn188      Zn  0.89051577  0.02373198  0.60776694     1.49500
O189        O  0.87331272  0.05539609  0.62390353    -1.83900
O190        O  0.88127978  0.06723092  0.67041121    -0.74500
O191        O  0.82466481  0.04586872  0.63332302    -0.74400
O192        O  0.86901096  0.14472669  0.61131891    -0.73900
O193        O  0.85777971  0.02278614  0.66545947    -0.74600
O194        O  0.88456572  0.14276924  0.63971097    -0.74200
O195        O  0.83137081  0.09389427  0.61290243    -0.74700
O196        O  0.88668455  0.03267533  0.57907026    -0.74100
O197        O  0.85560847  0.96697354  0.62834608    -0.74900
O198        O  0.86383640  0.07905270  0.57835600    -0.74300
O199        O  0.88469089  0.96788482  0.61264226    -0.74700
O200        O  0.91916486  0.03306546  0.61431825    -0.74700
O201        O  0.91893963  0.07190514  0.64009466    -0.74400
C202        C  0.86909385  0.04174037  0.67685675     0.77400
C203        C  0.81923048  0.07585969  0.62383422     0.77800
C204        C  0.87683395  0.16185952  0.62570791     0.76800
C205        C  0.87527561  0.05531137  0.56961521     0.77200
C206        C  0.87017936  0.94935160  0.62019708     0.78300
C207        C  0.92830438  0.05142796  0.62761589     0.77400
Zn208      Zn  0.89052532  0.51918133  0.64306245     1.49700
Zn209      Zn  0.86160912  0.58969038  0.64664444     1.49400
Zn210      Zn  0.89305251  0.58462274  0.61113127     1.49100
Zn211      Zn  0.85399404  0.52869359  0.61290093     1.49500
O212        O  0.87475584  0.55553723  0.62816796    -1.83900
O213        O  0.88934224  0.52872698  0.67194280    -0.74500
O214        O  0.87102743  0.64388302  0.64255516    -0.74400
O215        O  0.92217390  0.56935574  0.61491431    -0.73900
O216        O  0.86565675  0.57350683  0.67458460    -0.74600
O217        O  0.91913389  0.51861344  0.63453620    -0.74200
O218        O  0.88990853  0.64227081  0.61593364    -0.74700
O219        O  0.86023131  0.53370013  0.58439705    -0.74100
O220        O  0.83228305  0.59375084  0.64141327    -0.74900
O221        O  0.88679156  0.57266509  0.58299058    -0.74300
O222        O  0.82641988  0.55345784  0.61703988    -0.74700
O223        O  0.85387081  0.47060100  0.61895034    -0.74700
O224        O  0.87997834  0.46625718  0.63870631    -0.74400
C225        C  0.87781526  0.54964017  0.68226973     0.77400
C226        C  0.88084144  0.66103576  0.62924802     0.77800
C227        C  0.92975108  0.54057257  0.62385343     0.76800
C228        C  0.87353547  0.55185075  0.57478131     0.77200
C229        C  0.82043551  0.57935734  0.62895869     0.78300
C230        C  0.86584783  0.45051308  0.62926418     0.77400
Zn231      Zn  0.85197652  0.48530239  0.89197688     1.49700
Zn232      Zn  0.85899160  0.43042494  0.85501139     1.49400
Zn233      Zn  0.88885804  0.50041816  0.86342559     1.49100
Zn234      Zn  0.89076810  0.42778059  0.89054771     1.49500
O235        O  0.87247526  0.46062020  0.87535663    -1.83900
O236        O  0.82421335  0.46471060  0.88585710    -0.74500
O237        O  0.86451508  0.45351215  0.82831992    -0.74400
O238        O  0.88070723  0.55266392  0.87248614    -0.73900
O239        O  0.82886774  0.43009006  0.85903234    -0.74600
O240        O  0.85281956  0.54496645  0.88968967    -0.74200
O241        O  0.88650137  0.50036212  0.83449948    -0.74700
O242        O  0.92052342  0.44272656  0.88798375    -0.74100
O243        O  0.86715609  0.37333870  0.85685798    -0.74900
O244        O  0.91759566  0.49562761  0.87007743    -0.74300
O245        O  0.88655554  0.37170067  0.88302104    -0.74700
O246        O  0.88387474  0.43278800  0.91887626    -0.74700
O247        O  0.85701794  0.47091626  0.91995264    -0.74400
C248        C  0.81747004  0.44334770  0.87228673     0.77400
C249        C  0.87588016  0.48107076  0.82267485     0.77800
C250        C  0.86617350  0.56665819  0.88204121     0.76800
C251        C  0.92833820  0.47214352  0.87965816     0.77200
C252        C  0.87704819  0.35437346  0.86954398     0.78300
C253        C  0.87021044  0.45026481  0.92835165     0.77400
Zn254      Zn  0.85768672  0.92738675  0.85285959     1.49700
Zn255      Zn  0.89040851  0.93052003  0.88667995     1.49400
Zn256      Zn  0.88448375  0.00115842  0.85771234     1.49100
Zn257      Zn  0.85079653  0.98479393  0.88947307     1.49500
O258        O  0.87070114  0.96086685  0.87195539    -1.83900
O259        O  0.86584515  0.87147860  0.85641069    -0.74500
O260        O  0.91874703  0.94806298  0.88076536    -0.74400
O261        O  0.87975504  0.99781771  0.82936128    -0.73900
O262        O  0.88706823  0.87274830  0.88114381    -0.74600
O263        O  0.86115290  0.94545935  0.82492194    -0.74200
O264        O  0.91383735  0.99949095  0.86202170    -0.74700
O265        O  0.85057013  0.04467852  0.88672065    -0.74100
O266        O  0.88635282  0.93853345  0.91549694    -0.74900
O267        O  0.87504910  0.05338951  0.86528678    -0.74300
O268        O  0.85811743  0.97257920  0.91718136    -0.74700
O269        O  0.82313581  0.96106707  0.88474370    -0.74700
O270        O  0.82859803  0.92588489  0.85822941    -0.74400
C271        C  0.87664652  0.85396195  0.86882702     0.77400
C272        C  0.92548040  0.97695837  0.87119956     0.77800
C273        C  0.87026476  0.97507030  0.81821314     0.76800
C274        C  0.86168545  0.06687157  0.87646554     0.77200
C275        C  0.87262103  0.95503375  0.92530313     0.78300
C276        C  0.81698283  0.93824271  0.87144479     0.77400
Zn277      Zn  0.10876922  0.07547740  0.85427910     1.49700
Zn278      Zn  0.14684679  0.01653500  0.85698156     1.49400
Zn279      Zn  0.14073306  0.08028764  0.88879352     1.49100
Zn280      Zn  0.11132774  0.01213357  0.88799460     1.49500
O281        O  0.12673648  0.04604861  0.87156932    -1.83900
O282        O  0.11371244  0.05895957  0.82605266    -0.74500
O283        O  0.17495081  0.04015022  0.85876733    -0.74400
O284        O  0.13037861  0.13326462  0.88613057    -0.73900
O285        O  0.13944833  0.01846761  0.82906753    -0.74600
O286        O  0.11350434  0.13391505  0.85840268    -0.74200
O287        O  0.16886518  0.08598118  0.88053695    -0.74700
O288        O  0.11546876  0.02124274  0.91639647    -0.74100
O289        O  0.14599216  0.95936276  0.86431179    -0.74900
O290        O  0.13943504  0.06542827  0.91697054    -0.74300
O291        O  0.11888908  0.95760692  0.88299115    -0.74700
O292        O  0.08241682  0.01741717  0.88275042    -0.74700
O293        O  0.07940095  0.06297118  0.86022920    -0.74400
C294        C  0.12643483  0.03549209  0.81869202     0.77400
C295        C  0.18055481  0.06955321  0.86857992     0.77800
C296        C  0.12164977  0.15164768  0.87264721     0.76800
C297        C  0.12769837  0.04227562  0.92575439     0.77200
C298        C  0.13296502  0.94047050  0.87404173     0.78300
C299        C  0.07161236  0.03819450  0.87176588     0.77400
Zn300      Zn  0.11387617  0.50789111  0.86080829     1.49700
Zn301      Zn  0.11210245  0.57550824  0.89096726     1.49400
Zn302      Zn  0.15079511  0.51798539  0.89033146     1.49100
Zn303      Zn  0.14312261  0.57774935  0.85534100     1.49500
O304        O  0.13016883  0.54479684  0.87466372    -1.83900
O305        O  0.08497237  0.50873991  0.86847551    -0.74500
O306        O  0.11804585  0.56444567  0.91910248    -0.74400
O307        O  0.15019309  0.45886369  0.88494987    -0.73900
O308        O  0.08270234  0.56092577  0.88721584    -0.74600
O309        O  0.12318721  0.45577695  0.86638332    -0.74200
O310        O  0.14431233  0.52490117  0.91898017    -0.74700
O311        O  0.17267448  0.57867919  0.85915472    -0.74100
O312        O  0.11624649  0.63293907  0.88569219    -0.74900
O313        O  0.17862201  0.54232500  0.88513876    -0.74300
O314        O  0.13522268  0.63293111  0.85918962    -0.74700
O315        O  0.13786869  0.56136544  0.82774385    -0.74700
O316        O  0.11693079  0.51217145  0.83212152    -0.74400
C317        C  0.07469619  0.53196830  0.87873556     0.77400
C318        C  0.13085625  0.54386221  0.92809611     0.77800
C319        C  0.13735279  0.43933658  0.87529952     0.76800
C320        C  0.18460540  0.56562335  0.87188393     0.77200
C321        C  0.12562651  0.65101275  0.87231280     0.78300
C322        C  0.12729264  0.53378275  0.82106544     0.77400
Zn323      Zn  0.11402448  0.49494886  0.64110040     1.49700
Zn324      Zn  0.14964748  0.48537767  0.61077449     1.49400
Zn325      Zn  0.14335961  0.42483838  0.64580157     1.49100
Zn326      Zn  0.11136797  0.42588368  0.61143173     1.49500
O327        O  0.12974973  0.45757147  0.62697178    -1.83900
O328        O  0.12258505  0.54754893  0.63502809    -0.74500
O329        O  0.17785234  0.46255724  0.61484236    -0.74400
O330        O  0.13871936  0.44186087  0.67352485    -0.73900
O331        O  0.14858800  0.54467632  0.61510216    -0.74600
O332        O  0.11764565  0.49094556  0.66951854    -0.74200
O333        O  0.17269900  0.42494157  0.64056727    -0.74700
O334        O  0.11470201  0.36855412  0.61765433    -0.74100
O335        O  0.14258858  0.47716418  0.58281089    -0.74900
O336        O  0.13572163  0.36903266  0.64250798    -0.74300
O337        O  0.11812182  0.43325426  0.58322309    -0.74700
O338        O  0.08214469  0.44310148  0.61460086    -0.74700
O339        O  0.08522815  0.49382887  0.63418291    -0.74400
C340        C  0.13601505  0.56415885  0.62510660     0.77400
C341        C  0.18427135  0.43889541  0.62767228     0.77800
C342        C  0.12821378  0.46947628  0.68036431     0.76800
C343        C  0.12506525  0.35065195  0.63032777     0.77200
C344        C  0.13021175  0.45525046  0.57407267     0.78300
C345        C  0.07459371  0.47205458  0.62354453     0.77400
Zn346      Zn  0.14021008  0.91894970  0.60930777     1.49700
Zn347      Zn  0.10710128  0.92788599  0.64301818     1.49400
Zn348      Zn  0.14701192  0.98287177  0.64147533     1.49100
Zn349      Zn  0.11223550  0.99057248  0.60976968     1.49500
O350        O  0.12659482  0.95502688  0.62628961    -1.83900
O351        O  0.12838172  0.86694465  0.61202160    -0.74500
O352        O  0.11341877  0.93889742  0.67118770    -0.74400
O353        O  0.17510272  0.96069952  0.63734877    -0.73900
O354        O  0.10815331  0.86922210  0.63763297    -0.74600
O355        O  0.16859222  0.91189308  0.61727452    -0.74200
O356        O  0.14072088  0.97589867  0.66976881    -0.74700
O357        O  0.12055526  0.04412599  0.61567470    -0.74100
O358        O  0.07870213  0.94864289  0.63900967    -0.74900
O359        O  0.14588270  0.04135629  0.63632283    -0.74300
O360        O  0.08281413  0.98928838  0.61437163    -0.74700
O361        O  0.11737555  0.98200230  0.58157387    -0.74700
O362        O  0.13912907  0.93365459  0.58103742    -0.74400
C363        C  0.11708260  0.85021065  0.62424499     0.77400
C364        C  0.12705588  0.95877545  0.67941033     0.77800
C365        C  0.18058476  0.93048901  0.62806991     0.76800
C366        C  0.13367357  0.06085262  0.62598528     0.77200
C367        C  0.07164951  0.97292302  0.62685690     0.78300
C368        C  0.12867583  0.95895321  0.57225193     0.77400
Zn369      Zn  0.38226974  0.24948307  0.11365864     1.49700
Zn370      Zn  0.35287568  0.18031034  0.11361767     1.49400
Zn371      Zn  0.38427069  0.18726587  0.14779499     1.49100
Zn372      Zn  0.34580717  0.24646461  0.14420144     1.49500
O373        O  0.36641511  0.21624179  0.13028145    -1.83900
O374        O  0.37831706  0.23828998  0.08526732    -0.74500
O375        O  0.36326135  0.12787326  0.11703962    -0.74400
O376        O  0.41363282  0.20178688  0.14309451    -0.73900
O377        O  0.35497393  0.19271233  0.08555991    -0.74600
O378        O  0.41131016  0.24690974  0.12018963    -0.74200
O379        O  0.38094587  0.12844957  0.14416382    -0.74700
O380        O  0.35215338  0.24362999  0.17265847    -0.74100
O381        O  0.32453747  0.17459111  0.12095626    -0.74900
O382        O  0.37772651  0.20269869  0.17549151    -0.74300
O383        O  0.31731134  0.22318110  0.14084938    -0.74700
O384        O  0.34816579  0.30436182  0.13740432    -0.74700
O385        O  0.37482553  0.30401800  0.11813680    -0.74400
C386        C  0.36645070  0.21560685  0.07636636     0.77400
C387        C  0.37259368  0.11008488  0.13029059     0.77800
C388        C  0.42165963  0.22707249  0.13200761     0.76800
C389        C  0.36494689  0.22578685  0.18301715     0.77200
C390        C  0.31220056  0.19247658  0.13168613     0.78300
C391        C  0.36150959  0.32229430  0.12755815     0.77400
Zn392      Zn  0.35568192  0.68610563  0.14332124     1.49700
Zn393      Zn  0.35000491  0.74441748  0.10768707     1.49400
Zn394      Zn  0.38667518  0.75094314  0.13774012     1.49100
Zn395      Zn  0.38689327  0.68331109  0.10748048     1.49500
O396        O  0.36961214  0.71598291  0.12360706    -1.83900
O397        O  0.32644574  0.68547322  0.13815236    -0.74500
O398        O  0.35175117  0.80285587  0.11362009    -0.74400
O399        O  0.38665960  0.74306790  0.16636762    -0.73900
O400        O  0.32161785  0.72370926  0.11265278    -0.74600
O401        O  0.35944939  0.70729360  0.17048608    -0.74200
O402        O  0.37716404  0.80400756  0.13426365    -0.74700
O403        O  0.41634730  0.69872882  0.10938962    -0.74100
O404        O  0.35579562  0.73510134  0.07908792    -0.74900
O405        O  0.41462426  0.75030310  0.12853187    -0.74300
O406        O  0.37912548  0.68912625  0.07927011    -0.74700
O407        O  0.38381690  0.62729798  0.11555916    -0.74700
O408        O  0.36435109  0.63036423  0.14173707    -0.74400
C409        C  0.31498035  0.70031905  0.12551715     0.77400
C410        C  0.36369355  0.82135125  0.12474067     0.77800
C411        C  0.37339634  0.72833759  0.17728854     0.76800
C412        C  0.42458488  0.72749995  0.11780991     0.77200
C413        C  0.36720272  0.71140842  0.07010608     0.78300
C414        C  0.37462913  0.61088584  0.12956792     0.77400
Zn415      Zn  0.38705762  0.26200863  0.36406138     1.49700
Zn416      Zn  0.35242743  0.27433407  0.39544416     1.49400
Zn417      Zn  0.39143522  0.33136869  0.39412829     1.49100
Zn418      Zn  0.35955969  0.33323812  0.35964764     1.49500
O419        O  0.37253670  0.30029160  0.37874356    -1.83900
O420        O  0.37935696  0.20956922  0.37214930    -0.74500
O421        O  0.35985495  0.28260810  0.42351362    -0.74400
O422        O  0.42079012  0.31573771  0.38806202    -0.73900
O423        O  0.35311521  0.21503893  0.39181323    -0.74600
O424        O  0.41609231  0.26617719  0.36806839    -0.74200
O425        O  0.38648264  0.32137973  0.42278697    -0.74700
O426        O  0.36906379  0.38816324  0.36154151    -0.74100
O427        O  0.32438239  0.29809986  0.39081385    -0.74900
O428        O  0.38621787  0.38921717  0.38915421    -0.74300
O429        O  0.33086969  0.33755452  0.36614059    -0.74700
O430        O  0.36141428  0.31362733  0.33200474    -0.74700
O431        O  0.38182424  0.26372883  0.33561838    -0.74400
C432        C  0.36569313  0.19443525  0.38241224     0.77400
C433        C  0.37359432  0.30145352  0.43215784     0.77800
C434        C  0.42769106  0.28794103  0.37770191     0.76800
C435        C  0.37759301  0.40673081  0.37515316     0.77200
C436        C  0.31875737  0.32374195  0.37854729     0.78300
C437        C  0.37108075  0.28515403  0.32490583     0.77400
Zn438      Zn  0.36134063  0.83822089  0.35297957     1.49700
Zn439      Zn  0.39169753  0.82909859  0.38819147     1.49400
Zn440      Zn  0.35222406  0.77462751  0.38585126     1.49100
Zn441      Zn  0.38888666  0.76401654  0.35590129     1.49500
O442        O  0.37341898  0.80129336  0.37085231    -1.83900
O443        O  0.37073417  0.89247151  0.35857812    -0.74500
O444        O  0.38504183  0.81608267  0.41567286    -0.74400
O445        O  0.32455703  0.79729567  0.37980335    -0.73900
O446        O  0.38867292  0.88723796  0.38551227    -0.74600
O447        O  0.33176784  0.84081920  0.35712467    -0.74200
O448        O  0.35686905  0.78197425  0.41455862    -0.74700
O449        O  0.37853232  0.71019938  0.36041153    -0.74100
O450        O  0.42071406  0.81326937  0.38436218    -0.74900
O451        O  0.35332612  0.71597001  0.38132235    -0.74300
O452        O  0.41768395  0.76351816  0.36411889    -0.74700
O453        O  0.38737824  0.77476161  0.32720159    -0.74700
O454        O  0.36630460  0.82438333  0.32491870    -0.74400
C455        C  0.38017663  0.90786198  0.37262608     0.77400
C456        C  0.37086556  0.79810205  0.42410425     0.77800
C457        C  0.31917163  0.82427170  0.36822583     0.76800
C458        C  0.36490711  0.69514346  0.37090133     0.77200
C459        C  0.42828621  0.78482342  0.37510821     0.78300
C460        C  0.37727580  0.79857857  0.31706658     0.77400
Zn461      Zn  0.60583932  0.32166870  0.14312208     1.49700
Zn462      Zn  0.64515538  0.26637534  0.13941726     1.49400
Zn463      Zn  0.60842060  0.25857273  0.10945260     1.49100
Zn464      Zn  0.63703855  0.33000751  0.10744268     1.49500
O465        O  0.62403779  0.29420647  0.12512128    -1.83900
O466        O  0.61155485  0.30401359  0.17094402    -0.74500
O467        O  0.64431708  0.20829036  0.13340138    -0.74400
O468        O  0.57904009  0.26098029  0.11580348    -0.73900
O469        O  0.63940458  0.26921076  0.16782983    -0.74600
O470        O  0.57648056  0.30788430  0.13777227    -0.74200
O471        O  0.61689979  0.20531011  0.11536566    -0.74700
O472        O  0.63175926  0.31849882  0.07935161    -0.74100
O473        O  0.67289583  0.29058295  0.13531598    -0.74900
O474        O  0.61251667  0.26603141  0.08063008    -0.74300
O475        O  0.66676459  0.33201892  0.11142803    -0.74700
O476        O  0.62778974  0.38322838  0.11318853    -0.74700
O477        O  0.60961721  0.38063786  0.14022438    -0.74400
C478        C  0.62553367  0.28348366  0.17825650     0.77400
C479        C  0.63104613  0.18876418  0.12438134     0.77800
C480        C  0.56851443  0.28188984  0.12709838     0.76800
C481        C  0.62208253  0.29152172  0.07102461     0.77200
C482        C  0.67878988  0.31655191  0.12340164     0.78300
C483        C  0.61821607  0.39997633  0.12674626     0.77400
Zn484      Zn  0.64583294  0.76604262  0.10976688     1.49700
Zn485      Zn  0.60824975  0.82603342  0.10892569     1.49400
Zn486      Zn  0.60895828  0.75815908  0.13949205     1.49100
Zn487      Zn  0.63848548  0.82651162  0.14427665     1.49500
O488        O  0.62549476  0.79403620  0.12519026    -1.83900
O489        O  0.64030262  0.77454127  0.08116140    -0.74500
O490        O  0.57890540  0.81100900  0.11166339    -0.74400
O491        O  0.61798194  0.70462796  0.13497908    -0.73900
O492        O  0.61563368  0.81778969  0.08084822    -0.74600
O493        O  0.64399862  0.70734885  0.11489014    -0.74200
O494        O  0.58054933  0.76011559  0.13134000    -0.74700
O495        O  0.63580864  0.80665976  0.17140483    -0.74100
O496        O  0.61165416  0.88283178  0.11563450    -0.74900
O497        O  0.61063084  0.76535556  0.16808736    -0.74300
O498        O  0.62938406  0.88150848  0.14278919    -0.74700
O499        O  0.66709317  0.83015058  0.13848838    -0.74700
O500        O  0.67398712  0.78794273  0.11515313    -0.74400
C501        C  0.62811402  0.79618420  0.07194116     0.77400
C502        C  0.57061245  0.78279308  0.12053631     0.77800
C503        C  0.63163307  0.68805832  0.12526104     0.76800
C504        C  0.62316419  0.78321791  0.17861385     0.77200
C505        C  0.62008537  0.90021376  0.12974563     0.78300
C506        C  0.67942485  0.81466938  0.12686761     0.77400
Zn507      Zn  0.61416988  0.24088103  0.38824996     1.49700
Zn508      Zn  0.64121781  0.16840018  0.38865607     1.49400
Zn509      Zn  0.60888942  0.17750430  0.35492983     1.49100
Zn510      Zn  0.64874742  0.23290571  0.35653238     1.49500
O511        O  0.62820011  0.20494364  0.37169356    -1.83900
O512        O  0.61784921  0.23064788  0.41659551    -0.74500
O513        O  0.63059632  0.11574505  0.38466172    -0.74400
O514        O  0.58011738  0.19417611  0.36114901    -0.73900
O515        O  0.63891682  0.18120589  0.41693586    -0.74600
O516        O  0.58506335  0.24034866  0.38302607    -0.74200
O517        O  0.61151758  0.11849568  0.35842310    -0.74700
O518        O  0.64193310  0.22801114  0.32831261    -0.74100
O519        O  0.66977078  0.16322481  0.38166584    -0.74900
O520        O  0.61432621  0.19196418  0.32674496    -0.74300
O521        O  0.67642263  0.20917179  0.36001416    -0.74700
O522        O  0.64895431  0.29111603  0.36251617    -0.74700
O523        O  0.62362329  0.29417702  0.38324783    -0.74400
C524        C  0.62851864  0.20644783  0.42583169     0.77400
C525        C  0.62035288  0.09905107  0.37164225     0.77800
C526        C  0.57340101  0.22064060  0.37237451     0.76800
C527        C  0.62802520  0.21201869  0.31857830     0.77200
C528        C  0.68182405  0.18019781  0.37023004     0.78300
C529        C  0.63710778  0.31072024  0.37322686     0.77400
Zn530      Zn  0.61063776  0.74023896  0.35719004     1.49700
Zn531      Zn  0.64678784  0.73531951  0.38724978     1.49400
Zn532      Zn  0.61052354  0.67315318  0.38803529     1.49100
Zn533      Zn  0.64185789  0.67447239  0.35305027     1.49500
O534        O  0.62750535  0.70569886  0.37171975    -1.83900
O535        O  0.62008240  0.79416153  0.35990536    -0.74500
O536        O  0.63869649  0.73270458  0.41540078    -0.74400
O537        O  0.58094414  0.68759091  0.38575667    -0.73900
O538        O  0.64609890  0.79254191  0.37983390    -0.74600
O539        O  0.58278672  0.74003246  0.36712559    -0.74200
O540        O  0.61732852  0.68308286  0.41608091    -0.74700
O541        O  0.63422457  0.61846232  0.35518614    -0.74100
O542        O  0.67503877  0.71200161  0.38469627    -0.74900
O543        O  0.61506352  0.61636834  0.38155066    -0.74300
O544        O  0.67073090  0.67401920  0.35907748    -0.74700
O545        O  0.63825385  0.69335846  0.32577894    -0.74700
O546        O  0.61094696  0.72952475  0.32871185    -0.74400
C547        C  0.63390572  0.81123878  0.36912524     0.77400
C548        C  0.62754674  0.70914017  0.42467258     0.77800
C549        C  0.57285006  0.71715296  0.37788615     0.76800
C550        C  0.62466214  0.59932540  0.36797569     0.77200
C551        C  0.68185629  0.68791629  0.37224393     0.78300
C552        C  0.62436572  0.71361308  0.31834432     0.77400
Zn553      Zn  0.85077996  0.01426087  0.35733406     1.49700
Zn554      Zn  0.86097625  0.08348766  0.38680045     1.49400
Zn555      Zn  0.88704784  0.00791475  0.38693752     1.49100
Zn556      Zn  0.89004191  0.06861966  0.35178798     1.49500
O557        O  0.87219926  0.04327728  0.37052405    -1.83900
O558        O  0.82361743  0.03756089  0.36332724    -0.74500
O559        O  0.86459719  0.07279225  0.41522932    -0.74400
O560        O  0.87943727  0.95303609  0.38130396    -0.73900
O561        O  0.83202883  0.08900822  0.38104792    -0.74600
O562        O  0.85203824  0.95584086  0.36321396    -0.74200
O563        O  0.88298925  0.01925928  0.41552902    -0.74700
O564        O  0.91892425  0.05413158  0.35700037    -0.74100
O565        O  0.87224395  0.13565920  0.38072048    -0.74900
O566        O  0.91612284  0.01070815  0.38077184    -0.74300
O567        O  0.88737884  0.12738106  0.35231604    -0.74700
O568        O  0.88316554  0.05127465  0.32488866    -0.74700
O569        O  0.85446979  0.01919740  0.32830085    -0.74400
C570        C  0.81911830  0.06916951  0.37190070     0.77400
C571        C  0.87376762  0.04626619  0.42447348     0.77800
C572        C  0.86547721  0.93636203  0.37201038     0.76800
C573        C  0.92662670  0.02981012  0.36872334     0.77200
C574        C  0.88072804  0.14928200  0.36570231     0.78300
C575        C  0.86833170  0.03320990  0.31770187     0.77400
Zn576      Zn  0.88587500  0.50541359  0.39173713     1.49700
Zn577      Zn  0.85744506  0.57732595  0.39306579     1.49400
Zn578      Zn  0.88814778  0.56755491  0.35736133     1.49100
Zn579      Zn  0.84918255  0.51204308  0.36153312     1.49500
O580        O  0.87022068  0.54053569  0.37569219    -1.83900
O581        O  0.88259928  0.51476859  0.42069595    -0.74500
O582        O  0.86424923  0.63151981  0.38534888    -0.74400
O583        O  0.91740696  0.55390059  0.36241976    -0.73900
O584        O  0.86351941  0.56731731  0.42114094    -0.74600
O585        O  0.91500997  0.50760493  0.38474646    -0.74200
O586        O  0.88402504  0.62654057  0.35942909    -0.74700
O587        O  0.85386206  0.51603838  0.33277815    -0.74100
O588        O  0.82789071  0.57662359  0.39053437    -0.74900
O589        O  0.88224446  0.54920992  0.32974921    -0.74300
O590        O  0.82140727  0.53453629  0.36704268    -0.74700
O591        O  0.85110102  0.45375699  0.36680859    -0.74700
O592        O  0.87765574  0.45154962  0.38604472    -0.74400
C593        C  0.87316826  0.54093732  0.43002320     0.77400
C594        C  0.87397070  0.64693453  0.37147782     0.77800
C595        C  0.92541377  0.52805332  0.37313587     0.76800
C596        C  0.86795736  0.52961429  0.32237333     0.77200
C597        C  0.81564889  0.56032231  0.37912357     0.78300
C598        C  0.86423656  0.43457911  0.37617664     0.77400
Zn599      Zn  0.85433125  0.42075180  0.11110233     1.49700
Zn600      Zn  0.88750115  0.43098774  0.14506262     1.49400
Zn601      Zn  0.88421797  0.49064731  0.10960997     1.49100
Zn602      Zn  0.84889310  0.48745459  0.14223077     1.49500
O603        O  0.86879360  0.45761955  0.12722164    -1.83900
O604        O  0.86294601  0.36728618  0.11781678    -0.74500
O605        O  0.91679156  0.44554320  0.13950374    -0.74400
O606        O  0.88095824  0.47564084  0.08131349    -0.73900
O607        O  0.88408479  0.37262999  0.14262464    -0.74600
O608        O  0.85842661  0.42847878  0.08254383    -0.74200
O609        O  0.91359508  0.48835575  0.11569807    -0.74700
O610        O  0.85227191  0.54510787  0.13604762    -0.74100
O611        O  0.88157152  0.44556760  0.17306438    -0.74900
O612        O  0.87587383  0.54623463  0.11316905    -0.74300
O613        O  0.85420050  0.48177547  0.17086086    -0.74700
O614        O  0.81999290  0.46806428  0.13792804    -0.74700
O615        O  0.82491958  0.42250046  0.11568832    -0.74400
C616        C  0.87404167  0.35223372  0.13070813     0.77400
C617        C  0.92449921  0.46966862  0.12756942     0.77800
C618        C  0.86980329  0.45088192  0.07291962     0.76800
C619        C  0.86366766  0.56368125  0.12438498     0.77200
C620        C  0.86766328  0.46535615  0.18098019     0.78300
C621        C  0.81332785  0.44150922  0.12675872     0.77400
Zn622      Zn  0.84687533  0.98863756  0.13712494     1.49700
Zn623      Zn  0.88518603  0.93232132  0.14250965     1.49400
Zn624      Zn  0.85717922  0.92313696  0.10610384     1.49100
Zn625      Zn  0.88446755  0.99584119  0.10826926     1.49500
O626        O  0.86852426  0.96030273  0.12377504    -1.83900
O627        O  0.85122108  0.98709879  0.16584683    -0.74500
O628        O  0.88121890  0.87306995  0.13995711    -0.74400
O629        O  0.82810867  0.91887460  0.11047525    -0.73900
O630        O  0.87815529  0.95010064  0.16955910    -0.74600
O631        O  0.81971759  0.96423212  0.13180827    -0.74200
O632        O  0.86715799  0.86957031  0.11086401    -0.74700
O633        O  0.88321973  0.98547724  0.07938042    -0.74100
O634        O  0.91453902  0.94720935  0.13884477    -0.74900
O635        O  0.86174332  0.93652781  0.07835707    -0.74300
O636        O  0.91299965  0.99317053  0.11616173    -0.74700
O637        O  0.87530625  0.04996879  0.11298564    -0.74700
O638        O  0.84772241  0.04625783  0.13095566    -0.74400
C639        C  0.86455127  0.97193862  0.17654498     0.77400
C640        C  0.87464367  0.85321538  0.12566826     0.77800
C641        C  0.81512181  0.93552821  0.12101297     0.76800
C642        C  0.87282732  0.96118899  0.06984988     0.77200
C643        C  0.92284885  0.97278970  0.12813474     0.78300
C644        C  0.86088604  0.06608733  0.12194016     0.77400
Zn645      Zn  0.13785775  0.07956217  0.10770195     1.49700
Zn646      Zn  0.10806934  0.01111404  0.10843927     1.49400
Zn647      Zn  0.14317658  0.01611806  0.14056496     1.49100
Zn648      Zn  0.10545497  0.07548466  0.14200916     1.49500
O649        O  0.12349548  0.04532883  0.12507718    -1.83900
O650        O  0.13692299  0.06358052  0.07958970    -0.74500
O651        O  0.11524474  0.95643943  0.11408845    -0.74400
O652        O  0.17169515  0.03799917  0.13756005    -0.73900
O653        O  0.11325633  0.01871514  0.07986243    -0.74600
O654        O  0.16605296  0.08463496  0.11605341    -0.74200
O655        O  0.14113841  0.95828131  0.13426199    -0.74700
O656        O  0.11016329  0.06114676  0.17053315    -0.74100
O657        O  0.07878020  0.01715266  0.11333237    -0.74900
O658        O  0.13646631  0.02165185  0.16904002    -0.74300
O659        O  0.07612233  0.06227597  0.13618810    -0.74700
O660        O  0.11086291  0.13382866  0.13771216    -0.74700
O661        O  0.12813857  0.13359161  0.11012229    -0.74400
C662        C  0.12571878  0.03971394  0.07066700     0.77400
C663        C  0.12858482  0.93933772  0.12400557     0.77800
C664        C  0.17756947  0.06743021  0.12783910     0.76800
C665        C  0.12315683  0.03961843  0.17875893     0.77200
C666        C  0.06813272  0.03786102  0.12461081     0.78300
C667        C  0.11958247  0.15184712  0.12382113     0.77400
Zn668      Zn  0.10765239  0.57268450  0.11096564     1.49700
Zn669      Zn  0.14813481  0.51995823  0.11092258     1.49400
Zn670      Zn  0.14009865  0.57960997  0.14567352     1.49100
Zn671      Zn  0.11288171  0.50643294  0.14213287     1.49500
O672        O  0.12728829  0.54474966  0.12710548    -1.83900
O673        O  0.11309143  0.56218018  0.08239339    -0.74500
O674        O  0.17559709  0.54621300  0.11528723    -0.74400
O675        O  0.12985501  0.63332022  0.14162365    -0.73900
O676        O  0.14112059  0.52754868  0.08267565    -0.74600
O677        O  0.11037931  0.63081533  0.11555949    -0.74200
O678        O  0.16939353  0.58441218  0.14053170    -0.74700
O679        O  0.11756019  0.51179940  0.17055474    -0.74100
O680        O  0.14873582  0.46057677  0.11560524    -0.74900
O681        O  0.13713671  0.56316750  0.17376139    -0.74300
O682        O  0.12271162  0.45428533  0.13547688    -0.74700
O683        O  0.08326375  0.50729543  0.13761659    -0.74700
O684        O  0.07882047  0.55545359  0.11677702    -0.74400
C685        C  0.12701157  0.54417514  0.07346052     0.77400
C686        C  0.18134185  0.57119101  0.12780913     0.77800
C687        C  0.11950332  0.65011001  0.12862850     0.76800
C688        C  0.12760059  0.53478757  0.18113483     0.77200
C689        C  0.13680259  0.43946800  0.12559375     0.78300
C690        C  0.07175523  0.52830564  0.12739940     0.77400
Zn691      Zn  0.13893023  0.42475973  0.39280960     1.49700
Zn692      Zn  0.10928232  0.43864217  0.35788522     1.49400
Zn693      Zn  0.11259560  0.50048200  0.39259563     1.49100
Zn694      Zn  0.14913430  0.49229343  0.36274630     1.49500
O695        O  0.12744451  0.46427045  0.37627550    -1.83900
O696        O  0.13102250  0.37181115  0.38460853    -0.74500
O697        O  0.08045084  0.45333795  0.36363418    -0.74400
O698        O  0.11615418  0.48858969  0.42096513    -0.73900
O699        O  0.11177056  0.37925346  0.35869781    -0.74600
O700        O  0.13245923  0.43243235  0.42087124    -0.74200
O701        O  0.08317500  0.49961196  0.38601459    -0.74700
O702        O  0.14904686  0.54970784  0.36971584    -0.74100
O703        O  0.11605033  0.45742279  0.33071956    -0.74900
O704        O  0.12234008  0.55468229  0.38878653    -0.74300
O705        O  0.14405648  0.49158817  0.33398991    -0.74700
O706        O  0.17649470  0.46754986  0.36794955    -0.74700
O707        O  0.16845669  0.42352920  0.39008655    -0.74400
C708        C  0.12118130  0.35764907  0.37059300     0.77400
C709        C  0.07263745  0.47897648  0.37461568     0.77800
C710        C  0.12404816  0.46016701  0.42988760     0.76800
C711        C  0.13682658  0.57007770  0.37962738     0.77200
C712        C  0.13018808  0.47771989  0.32344017     0.78300
C713        C  0.18141853  0.44018224  0.37948271     0.77400
Zn714      Zn  0.14006313  0.92650948  0.39067155     1.49700
Zn715      Zn  0.11195478  0.99810666  0.38924135     1.49400
Zn716      Zn  0.14854289  0.99163570  0.35908594     1.49100
Zn717      Zn  0.10995279  0.93438086  0.35529717     1.49500
O718        O  0.12758759  0.96287868  0.37323812    -1.83900
O719        O  0.13522257  0.93820579  0.41843616    -0.74500
O720        O  0.11871944  0.05242555  0.38240343    -0.74400
O721        O  0.17652610  0.96837067  0.36424686    -0.73900
O722        O  0.11548294  0.98970943  0.41821632    -0.74600
O723        O  0.16940630  0.92383913  0.38644169    -0.74200
O724        O  0.14662888  0.05010690  0.36483304    -0.74700
O725        O  0.11551759  0.95195265  0.32761851    -0.74100
O726        O  0.08311538  0.99367477  0.38309647    -0.74900
O727        O  0.14281147  0.98841692  0.33027152    -0.74300
O728        O  0.08060521  0.94761295  0.36068272    -0.74700
O729        O  0.11428053  0.87550970  0.35785318    -0.74700
O730        O  0.13063183  0.87320113  0.38586172    -0.74400
C731        C  0.12528540  0.96394441  0.42741197     0.77400
C732        C  0.13257065  0.06926542  0.37298888     0.77800
C733        C  0.18195348  0.94076943  0.37548274     0.76800
C734        C  0.12898766  0.97339128  0.32000613     0.77200
C735        C  0.07266626  0.97316425  0.37167175     0.78300
C736        C  0.12204320  0.85641740  0.37180651     0.77400
C737        C  0.11815669  0.73523745  0.40882516    -0.17600
C738        C  0.12157356  0.69535870  0.41043362    -0.19800
C739        C  0.12905066  0.67428078  0.39460803     0.20900
C740        C  0.13350917  0.69366472  0.37709536    -0.02700
C741        C  0.12964391  0.73376361  0.37533299    -0.05800
C742        C  0.12192306  0.75454587  0.39128831     0.21200
C743        C  0.13342620  0.75299743  0.35760819     0.19300
C744        C  0.14155231  0.73210382  0.34201238    -0.17200
C745        C  0.14555715  0.69239146  0.34381723    -0.19500
C746        C  0.14137153  0.67282265  0.36120636     0.20800
C747        C  0.14410468  0.63253750  0.36272276    -0.32500
C748        C  0.13841436  0.61278131  0.37968378     0.01500
C749        C  0.13140756  0.63394652  0.39573299    -0.23800
C750        C  0.11840315  0.79441068  0.38953538    -0.28400
C751        C  0.12215822  0.81375995  0.37197772     0.07200
C752        C  0.12937836  0.79289226  0.35595389    -0.27100
H753        H  0.11235254  0.75090463  0.42123035     0.11900
H754        H  0.11818090  0.68092406  0.42400637     0.13000
H755        H  0.14474714  0.74645228  0.32837833     0.12100
H756        H  0.15161601  0.67683740  0.33149398     0.11300
H757        H  0.14934283  0.61624197  0.35027334     0.16700
H758        H  0.12710380  0.61876848  0.40887256     0.12600
H759        H  0.11314348  0.81072525  0.40198247     0.15500
H760        H  0.13283141  0.80808622  0.34259626     0.15300
C761        C  0.08956901  0.22775675  0.36668719    -0.17600
C762        C  0.09139814  0.18731489  0.36765517    -0.19800
C763        C  0.11033470  0.16982483  0.36855735     0.20900
C764        C  0.12762099  0.19314563  0.36819512    -0.02700
C765        C  0.12576954  0.23395338  0.36748461    -0.05800
C766        C  0.10664422  0.25142718  0.36676118     0.21200
C767        C  0.14306462  0.25725905  0.36793208     0.19300
C768        C  0.16199558  0.23978177  0.36849994    -0.17200
C769        C  0.16383100  0.19936573  0.36885711    -0.19500
C770        C  0.14675964  0.17574929  0.36888516     0.20800
C771        C  0.14847922  0.13513198  0.36993621    -0.32500
C772        C  0.13128655  0.11189253  0.37093777     0.01500
C773        C  0.11228864  0.12945874  0.37009284    -0.23800
C774        C  0.10498440  0.29219414  0.36666500    -0.28400
C775        C  0.12222399  0.31530671  0.36786888     0.07200
C776        C  0.14114395  0.29766875  0.36828946    -0.27100
H777        H  0.07479179  0.24053174  0.36617060     0.11900
H778        H  0.07797643  0.16970333  0.36784514     0.13000
H779        H  0.17540318  0.25740828  0.36881177     0.12100
H780        H  0.17860893  0.18659339  0.36940093     0.11300
H781        H  0.16310932  0.12170761  0.37056592     0.16700
H782        H  0.09895464  0.11156747  0.37054696     0.12600
H783        H  0.09039296  0.30583824  0.36656656     0.15500
H784        H  0.15442945  0.31562365  0.36919806     0.15300
C785        C  0.10046382  0.46133600  0.25857465    -0.17600
C786        C  0.10011524  0.46939339  0.23875016    -0.19800
C787        C  0.11448474  0.49401765  0.23047484     0.20900
C788        C  0.12948256  0.51047356  0.24220291    -0.02700
C789        C  0.12991879  0.50209177  0.26222895    -0.05800
C790        C  0.11525467  0.47757219  0.27042573     0.21200
C791        C  0.14491896  0.51833993  0.27403383     0.19300
C792        C  0.15942314  0.54268080  0.26566154    -0.17200
C793        C  0.15893984  0.55112981  0.24579847    -0.19500
C794        C  0.14396651  0.53535484  0.23394888     0.20800
C795        C  0.14317687  0.54393002  0.21402568    -0.32500
C796        C  0.12821918  0.52749856  0.20227673     0.01500
C797        C  0.11402403  0.50245346  0.21066003    -0.23800
C798        C  0.11554712  0.46972197  0.29033569    -0.28400
C799        C  0.13036839  0.48579646  0.30229604     0.07200
C800        C  0.14507497  0.51006729  0.29398826    -0.27100
H801        H  0.08913048  0.44239753  0.26464657     0.11900
H802        H  0.08853583  0.45650555  0.22990076     0.13000
H803        H  0.17108825  0.55532950  0.27448955     0.12100
H804        H  0.17025135  0.57011056  0.23971875     0.11300
H805        H  0.15432950  0.56288136  0.20763946     0.16700
H806        H  0.10246323  0.48959974  0.20175903     0.12600
H807        H  0.10414836  0.45105191  0.29651230     0.15500
H808        H  0.15655451  0.52275308  0.30303771     0.15300
C809        C  0.14397329  0.81437254  0.15553807    -0.17600
C810        C  0.14173131  0.77412296  0.15661912    -0.19800
C811        C  0.13128273  0.75399368  0.14216172     0.20900
C812        C  0.12300530  0.77445317  0.12644061    -0.02700
C813        C  0.12522927  0.81511054  0.12537454    -0.05800
C814        C  0.13577029  0.83514197  0.14001083     0.21200
C815        C  0.11680070  0.83570113  0.10976645     0.19300
C816        C  0.10645335  0.81550236  0.09523868    -0.17200
C817        C  0.10439526  0.77512413  0.09621673    -0.19500
C818        C  0.11256213  0.75431662  0.11178265     0.20800
C819        C  0.11073142  0.71373185  0.11283941    -0.32500
C820        C  0.11924267  0.69310681  0.12837134     0.01500
C821        C  0.12924955  0.71365980  0.14307376    -0.23800
C822        C  0.13761341  0.87563939  0.13906274    -0.28400
C823        C  0.12876364  0.89644537  0.12384991     0.07200
C824        C  0.11858682  0.87619158  0.10912453    -0.27100
H825        H  0.15206223  0.82928333  0.16690626     0.11900
H826        H  0.14820621  0.75871499  0.16875290     0.13000
H827        H  0.09991258  0.83094045  0.08314760     0.12100
H828        H  0.09638301  0.76018552  0.08480943     0.11300
H829        H  0.10312075  0.69820382  0.10136331     0.16700
H830        H  0.13591884  0.69819466  0.15509882     0.12600
H831        H  0.14532235  0.89105415  0.15052342     0.15500
H832        H  0.11178631  0.89200481  0.09728124     0.15300
C833        C  0.11681718  0.27781476  0.15813414    -0.17600
C834        C  0.12067063  0.31766779  0.15871057    -0.19800
C835        C  0.12866455  0.33674363  0.14247039     0.20900
C836        C  0.13325086  0.31549825  0.12561434    -0.02700
C837        C  0.12930363  0.27523157  0.12502284    -0.05800
C838        C  0.12088518  0.25637285  0.14131602     0.21200
C839        C  0.13360297  0.25396854  0.10810176     0.19300
C840        C  0.14202544  0.27296394  0.09200763    -0.17200
C841        C  0.14582217  0.31293767  0.09255439    -0.19500
C842        C  0.14133353  0.33461882  0.10921822     0.20800
C843        C  0.14402072  0.37519455  0.10957016    -0.32500
C844        C  0.13842676  0.39664515  0.12603476     0.01500
C845        C  0.13140226  0.37696378  0.14259499    -0.23800
C846        C  0.11684780  0.21638403  0.14059008    -0.28400
C847        C  0.12127718  0.19482878  0.12384130     0.07200
C848        C  0.12954748  0.21403548  0.10760664    -0.27100
H849        H  0.11049727  0.26381797  0.17081214     0.11900
H850        H  0.11712494  0.33368590  0.17177261     0.13000
H851        H  0.14552417  0.25695442  0.07893245     0.12100
H852        H  0.15204876  0.32697605  0.07984063     0.11300
H853        H  0.14930762  0.39021625  0.09673091     0.16700
H854        H  0.12723233  0.39330070  0.15540285     0.12600
H855        H  0.11078576  0.20188842  0.15325219     0.15500
H856        H  0.13318054  0.19778974  0.09462867     0.15300
C857        C  0.09044679  0.99175029  0.23854480    -0.17600
C858        C  0.09167620  0.98047679  0.25802292    -0.19800
C859        C  0.10925112  0.98681743  0.26865046     0.20900
C860        C  0.12568341  0.00505207  0.25957921    -0.02700
C861        C  0.12453156  0.01601586  0.23984339    -0.05800
C862        C  0.10682632  0.00928411  0.22925790     0.21200
C863        C  0.14122731  0.03305513  0.23062767     0.19300
C864        C  0.15862649  0.04025665  0.24136131    -0.17200
C865        C  0.15963324  0.03005015  0.26096998    -0.19500
C866        C  0.14333857  0.01205758  0.27015943     0.20800
C867        C  0.14441393  0.00101495  0.28973242    -0.32500
C868        C  0.12814983  0.98259960  0.29893176     0.01500
C869        C  0.11064145  0.97542120  0.28818737    -0.23800
C870        C  0.10602932  0.01924993  0.20947391    -0.28400
C871        C  0.12293535  0.03461133  0.20005305     0.07200
C872        C  0.14040384  0.04171470  0.21074632    -0.27100
H873        H  0.07674724  0.98629602  0.23067138     0.11900
H874        H  0.07887417  0.96669574  0.26476565     0.13000
H875        H  0.17152868  0.05355356  0.23455038     0.12100
H876        H  0.17326425  0.03583567  0.26889641     0.11300
H877        H  0.15794714  0.00686326  0.29781672     0.16700
H878        H  0.09791933  0.96173161  0.29512942     0.12600
H879        H  0.09262876  0.01335681  0.20118768     0.15500
H880        H  0.15343683  0.05354409  0.20347827     0.15300
C881        C  0.00871270  0.97543601  0.09612785    -0.17600
C882        C  0.98860984  0.96465619  0.09715690    -0.19800
C883        C  0.97662442  0.97718390  0.11262339     0.20900
C884        C  0.98488562  0.00120823  0.12712602    -0.02700
C885        C  0.00517486  0.01234320  0.12600165    -0.05800
C886        C  0.01714236  0.99905822  0.11052009     0.21200
C887        C  0.01351895  0.03639497  0.14044025     0.19300
C888        C  0.00136549  0.04952442  0.15571432    -0.17200
C889        C  0.98122630  0.03852549  0.15682712    -0.19500
C890        C  0.97286949  0.01415880  0.14268733     0.20800
C891        C  0.95267131  0.00295293  0.14360965    -0.32500
C892        C  0.94446971  0.97931223  0.12907107     0.01500
C893        C  0.95644878  0.96659086  0.11366673    -0.23800
C894        C  0.03744062  0.00891347  0.10986263    -0.28400
C895        C  0.04612960  0.03184144  0.12450012     0.07200
C896        C  0.03393345  0.04616391  0.13955034    -0.27100
H897        H  0.01770927  0.96509778  0.08412237     0.11900
H898        H  0.98244680  0.94636307  0.08587399     0.13000
H899        H  0.00748016  0.06809559  0.16690006     0.12100
H900        H  0.97220096  0.04898364  0.16878802     0.11300
H901        H  0.94317779  0.01357439  0.15520697     0.16700
H902        H  0.94988233  0.94907722  0.10226876     0.12600
H903        H  0.04658994  0.99793196  0.09809602     0.15500
H904        H  0.04044329  0.06380218  0.15090785     0.15300
C905        C  0.87636463  0.72851664  0.09066215    -0.17600
C906        C  0.87430119  0.68812195  0.09032831    -0.19800
C907        C  0.86994918  0.66763951  0.10740495     0.20900
C908        C  0.86758350  0.68808666  0.12499034    -0.02700
C909        C  0.87008585  0.72882455  0.12539993    -0.05800
C910        C  0.87440059  0.74907318  0.10812247     0.21200
C911        C  0.86823232  0.74925971  0.14306038     0.19300
C912        C  0.86354742  0.72877028  0.16006906    -0.17200
C913        C  0.86083267  0.68845764  0.15962266    -0.19500
C914        C  0.86287637  0.66782609  0.14218602     0.20800
C915        C  0.86062480  0.62726954  0.14169045    -0.32500
C916        C  0.86356778  0.60662770  0.12433042     0.01500
C917        C  0.86817915  0.62705036  0.10724338    -0.23800
C918        C  0.87648338  0.78955798  0.10855606    -0.28400
C919        C  0.87473064  0.81022028  0.12607330     0.07200
C920        C  0.87082517  0.78982120  0.14333369    -0.27100
H921        H  0.87962880  0.74367669  0.07726051     0.11900
H922        H  0.87609566  0.67289733  0.07670146     0.13000
H923        H  0.86194385  0.74393986  0.17372973     0.12100
H924        H  0.85726037  0.67336636  0.17296653     0.11300
H925        H  0.85737673  0.61160087  0.15495679     0.16700
H926        H  0.87048723  0.61126572  0.09383342     0.12600
H927        H  0.87934478  0.80514881  0.09517697     0.15500
H928        H  0.86901998  0.80565798  0.15679134     0.15300
C929        C  0.88377289  0.19030603  0.09535833    -0.17600
C930        C  0.88695622  0.23013283  0.09725738    -0.19800
C931        C  0.87997108  0.24991568  0.11366712     0.20900
C932        C  0.86988208  0.22941734  0.12847384    -0.02700
C933        C  0.86643375  0.18927215  0.12642913    -0.05800
C934        C  0.87344622  0.16974952  0.10978284     0.21200
C935        C  0.85601795  0.16869800  0.14099608     0.19300
C936        C  0.84932441  0.18851463  0.15757149    -0.17200
C937        C  0.85276986  0.22841131  0.15962071    -0.19500
C938        C  0.86293551  0.24916138  0.14511421     0.20800
C939        C  0.86571676  0.28946845  0.14657205    -0.32500
C940        C  0.87498725  0.30991245  0.13141773     0.01500
C941        C  0.88231985  0.29007088  0.11520390    -0.23800
C942        C  0.87041084  0.12981754  0.10798893    -0.28400
C943        C  0.86050960  0.10886090  0.12259324     0.07200
C944        C  0.85292750  0.12855931  0.13889253    -0.27100
H945        H  0.88932458  0.17558695  0.08255704     0.11900
H946        H  0.89476696  0.24552313  0.08582451     0.13000
H947        H  0.84141986  0.17316012  0.16895047     0.12100
H948        H  0.84732478  0.24310127  0.17247062     0.11300
H949        H  0.85973847  0.30519916  0.15889594     0.16700
H950        H  0.88924433  0.30623023  0.10347667     0.12600
H951        H  0.87628233  0.11475024  0.09540577     0.15500
H952        H  0.84554571  0.11240231  0.15033534     0.15300
C953        C  0.01458441  0.44534184  0.14719988    -0.17600
C954        C  0.99410496  0.43677393  0.14712543    -0.19800
C955        C  0.98055722  0.46106158  0.13744849     0.20900
C956        C  0.98782907  0.49426475  0.12767823    -0.02700
C957        C  0.00850434  0.50299938  0.12780759    -0.05800
C958        C  0.02192569  0.47842433  0.13761858     0.21200
C959        C  0.01572064  0.53629479  0.11808388     0.19300
C960        C  0.00220564  0.56054056  0.10837852    -0.17200
C961        C  0.98177665  0.55186498  0.10820945    -0.19500
C962        C  0.97445578  0.51880476  0.11778781     0.20800
C963        C  0.95397502  0.51007067  0.11768743    -0.32500
C964        C  0.94644219  0.47729032  0.12753508     0.01500
C965        C  0.95990571  0.45288664  0.13740639    -0.23800
C966        C  0.04244593  0.48721287  0.13760010    -0.28400
C967        C  0.04986154  0.52021818  0.12779294     0.07200
C968        C  0.03630035  0.54465656  0.11813156    -0.27100
H969        H  0.02469057  0.42608570  0.15477245     0.11900
H970        H  0.98885779  0.41109919  0.15467061     0.13000
H971        H  0.00744724  0.58624159  0.10085228     0.12100
H972        H  0.97168290  0.57105912  0.10058099     0.11300
H973        H  0.94383126  0.52928104  0.11011296     0.16700
H974        H  0.95433893  0.42750836  0.14499830     0.12600
H975        H  0.05266883  0.46801758  0.14507876     0.15500
H976        H  0.04175488  0.57015886  0.11056570     0.15300
C977        C  0.98250089  0.43743711  0.37645876    -0.17600
C978        C  0.00310462  0.43038384  0.37651211    -0.19800
C979        C  0.01671284  0.46115007  0.37452444     0.20900
C980        C  0.00945059  0.49935771  0.37215798    -0.02700
C981        C  0.98865048  0.50635594  0.37165452    -0.05800
C982        C  0.97513767  0.47531683  0.37415073     0.21200
C983        C  0.98139501  0.54446580  0.36890346     0.19300
C984        C  0.99500681  0.57516110  0.36672394    -0.17200
C985        C  0.01559918  0.56836003  0.36766425    -0.19500
C986        C  0.02296168  0.53064644  0.37048243     0.20800
C987        C  0.04358114  0.52367564  0.37169389    -0.32500
C988        C  0.05089433  0.48570665  0.37381965     0.01500
C989        C  0.03743070  0.45449115  0.37498508    -0.23800
C990        C  0.95452396  0.48279431  0.37455451    -0.28400
C991        C  0.94718056  0.52074254  0.37199694     0.07200
C992        C  0.96068563  0.55130044  0.36874083    -0.27100
H993        H  0.97231303  0.41324878  0.37828418     0.11900
H994        H  0.00840066  0.40089769  0.37833936     0.13000
H995        H  0.98971645  0.60456229  0.36457847     0.12100
H996        H  0.02578446  0.59265062  0.36620610     0.11300
H997        H  0.05400984  0.54769170  0.37060362     0.16700
H998        H  0.04310339  0.42521475  0.37668726     0.12600
H999        H  0.94413939  0.45902443  0.37678528     0.15500
H1000       H  0.95508555  0.58055599  0.36676292     0.15300
C1001       C  0.83159172  0.50104737  0.24104476    -0.17600
C1002       C  0.83169424  0.51079318  0.26073480    -0.19800
C1003       C  0.84956950  0.51002484  0.27132836     0.20900
C1004       C  0.86746453  0.49864310  0.26205815    -0.02700
C1005       C  0.86727821  0.48799889  0.24227417    -0.05800
C1006       C  0.84931508  0.48986877  0.23165589     0.21200
C1007       C  0.88512166  0.47614761  0.23305655     0.19300
C1008       C  0.90292800  0.47475705  0.24374122    -0.17200
C1009       C  0.90317711  0.48590267  0.26324907    -0.19500
C1010       C  0.88557732  0.49821107  0.27250011     0.20800
C1011       C  0.88574828  0.50994141  0.29200665    -0.32500
C1012       C  0.86793871  0.52085356  0.30138609     0.01500
C1013       C  0.84987667  0.52043624  0.29100779    -0.23800
C1014       C  0.84947335  0.48138888  0.21175761    -0.28400
C1015       C  0.86729983  0.47049644  0.20232863     0.07200
C1016       C  0.88495604  0.46692861  0.21321776    -0.27100
H1017       H  0.81765096  0.50247306  0.23312420     0.11900
H1018       H  0.81781806  0.51938922  0.26762675     0.13000
H1019       H  0.91675325  0.46563658  0.23691845     0.12100
H1020       H  0.91717486  0.48503517  0.27109136     0.11300
H1021       H  0.89962421  0.50944058  0.30008339     0.16700
H1022       H  0.83609662  0.52856462  0.29824475     0.12600
H1023       H  0.83574305  0.48377698  0.20353676     0.15500
H1024       H  0.89875863  0.45859967  0.20608300     0.15300
C1025       C  0.90454326  0.81615826  0.36547762    -0.17600
C1026       C  0.90583935  0.77567231  0.36468661    -0.19800
C1027       C  0.88858945  0.75277507  0.36636772     0.20900
C1028       C  0.86976887  0.77099100  0.36851693    -0.02700
C1029       C  0.86841414  0.81191816  0.36890725    -0.05800
C1030       C  0.88593952  0.83447741  0.36768868     0.21200
C1031       C  0.84958748  0.83021656  0.37078615     0.19300
C1032       C  0.83231684  0.80727396  0.37234750    -0.17200
C1033       C  0.83370111  0.76670237  0.37240899    -0.19500
C1034       C  0.85235645  0.74833765  0.37062086     0.20800
C1035       C  0.85396785  0.70775736  0.37126157    -0.32500
C1036       C  0.87267693  0.68946600  0.36929141     0.01500
C1037       C  0.88987256  0.71204119  0.36639539    -0.23800
C1038       C  0.88460787  0.87496978  0.36886773    -0.28400
C1039       C  0.86596682  0.89351551  0.37071444     0.07200
C1040       C  0.84844231  0.87103943  0.37132671    -0.27100
H1041       H  0.91812247  0.83316767  0.36442632     0.11900
H1042       H  0.92038754  0.76224933  0.36305728     0.13000
H1043       H  0.81775277  0.82070557  0.37380283     0.12100
H1044       H  0.82017684  0.74967439  0.37394641     0.11300
H1045       H  0.84066074  0.69026907  0.37336396     0.16700
H1046       H  0.90429026  0.69794819  0.36501169     0.12600
H1047       H  0.89814131  0.89223948  0.36812292     0.15500
H1048       H  0.83406401  0.88524045  0.37277228     0.15300
C1049       C  0.85419573  0.27122692  0.33938687    -0.17600
C1050       C  0.85039739  0.31091108  0.34190776    -0.19800
C1051       C  0.85944777  0.33152372  0.35709194     0.20900
C1052       C  0.87271460  0.31199732  0.36964597    -0.02700
C1053       C  0.87660021  0.27209310  0.36707337    -0.05800
C1054       C  0.86713458  0.25147683  0.35198890     0.21200
C1055       C  0.88949498  0.25258936  0.37999599     0.19300
C1056       C  0.89890160  0.27324232  0.39489390    -0.17200
C1057       C  0.89519193  0.31278178  0.39733004    -0.19500
C1058       C  0.88196857  0.33221371  0.38493884     0.20800
C1059       C  0.87806593  0.37166827  0.38751066    -0.32500
C1060       C  0.86523246  0.39174735  0.37488033     0.01500
C1061       C  0.85571910  0.37135538  0.35982247    -0.23800
C1062       C  0.87009097  0.21121009  0.35039652    -0.28400
C1063       C  0.88201565  0.19158443  0.36396692     0.07200
C1064       C  0.89202430  0.21244002  0.37839036    -0.27100
H1065       H  0.84678960  0.25586108  0.32774106     0.11900
H1066       H  0.84026753  0.32541526  0.33206204     0.13000
H1067       H  0.90889484  0.25867590  0.40485665     0.12100
H1068       H  0.90252193  0.32809916  0.40903528     0.11300
H1069       H  0.88550329  0.38701640  0.39915728     0.16700
H1070       H  0.84602191  0.38667377  0.34986363     0.12600
H1071       H  0.86206967  0.19478174  0.33950267     0.15500
H1072       H  0.90100575  0.19700834  0.38894466     0.15300
C1073       C  0.99630553  0.07376137  0.37583136    -0.17600
C1074       C  0.01671713  0.06533678  0.37679733    -0.19800
C1075       C  0.02360249  0.02735109  0.37368940     0.20900
C1076       C  0.00983807  0.99744998  0.36969879    -0.02700
C1077       C  0.98921652  0.00580719  0.36908867    -0.05800
C1078       C  0.98243711  0.04424808  0.37197553     0.21200
C1079       C  0.97539056  0.97568058  0.36567406     0.19300
C1080       C  0.98227849  0.93770762  0.36259069    -0.17200
C1081       C  0.00275699  0.92958882  0.36278822    -0.19500
C1082       C  0.01666671  0.95920454  0.36633964     0.20800
C1083       C  0.03725758  0.95127046  0.36666301    -0.32500
C1084       C  0.05098524  0.98087828  0.37089505     0.01500
C1085       C  0.04402305  0.01876360  0.37447983    -0.23800
C1086       C  0.96190787  0.05235298  0.37114275    -0.28400
C1087       C  0.94816507  0.02225881  0.36815277     0.07200
C1088       C  0.95491768  0.98405174  0.36552448    -0.27100
H1089       H  0.99135697  0.10332664  0.37819869     0.11900
H1090       H  0.02714146  0.08859134  0.37988356     0.13000
H1091       H  0.97182088  0.91429642  0.35994462     0.12100
H1092       H  0.00771249  0.90008102  0.36026601     0.11300
H1093       H  0.04257795  0.92203172  0.36400532     0.16700
H1094       H  0.05459045  0.04181026  0.37757137     0.12600
H1095       H  0.95655728  0.08171548  0.37340063     0.15500
H1096       H  0.94417453  0.96092845  0.36323415     0.15300
C1097       C  0.83067898  0.02319924  0.25629881    -0.17600
C1098       C  0.83018068  0.01461400  0.23647365    -0.19800
C1099       C  0.84769570  0.00368134  0.22664542     0.20900
C1100       C  0.86598591  0.00247080  0.23676261    -0.02700
C1101       C  0.86656236  0.01195124  0.25663230    -0.05800
C1102       C  0.84875166  0.02153927  0.26655055     0.21200
C1103       C  0.88492454  0.01113712  0.26663639     0.19300
C1104       C  0.90250770  0.00111010  0.25673923    -0.17200
C1105       C  0.90187654  0.99104302  0.23714778    -0.19500
C1106       C  0.88368655  0.99129609  0.22710352     0.20800
C1107       C  0.88291350  0.98042024  0.20758237    -0.32500
C1108       C  0.86477392  0.98141973  0.19740109     0.01500
C1109       C  0.84725130  0.99362086  0.20693853    -0.23800
C1110       C  0.84933431  0.02864873  0.28658132    -0.28400
C1111       C  0.86759497  0.02743698  0.29658576     0.07200
C1112       C  0.88534823  0.01955356  0.28646142    -0.27100
H1113       H  0.81690616  0.03086867  0.26363940     0.11900
H1114       H  0.81603798  0.01591305  0.22890016     0.13000
H1115       H  0.91671006  0.00044245  0.26423139     0.12100
H1116       H  0.91560632  0.98284553  0.22987626     0.11300
H1117       H  0.89653636  0.97188762  0.20019466     0.16700
H1118       H  0.83325199  0.99476757  0.19909585     0.12600
H1119       H  0.83566327  0.03519676  0.29438159     0.15500
H1120       H  0.89941743  0.01851347  0.29420229     0.15300
C1121       C  0.73641306  0.61375700  0.34206980    -0.17600
C1122       C  0.75437531  0.59328464  0.34339624    -0.19800
C1123       C  0.76517979  0.59294170  0.36077259     0.20900
C1124       C  0.75781931  0.61357663  0.37698659    -0.02700
C1125       C  0.73963678  0.63422352  0.37565800    -0.05800
C1126       C  0.72892791  0.63417971  0.35811478     0.21200
C1127       C  0.73213549  0.65468785  0.39187315     0.19300
C1128       C  0.74302750  0.65444385  0.40923240    -0.17200
C1129       C  0.76117933  0.63434438  0.41048680    -0.19500
C1130       C  0.76870078  0.61386936  0.39444260     0.20800
C1131       C  0.78712278  0.59445919  0.39538448    -0.32500
C1132       C  0.79475302  0.57446470  0.37913811     0.01500
C1133       C  0.78345573  0.57316388  0.36203353    -0.23800
C1134       C  0.71068760  0.65383716  0.35697724    -0.28400
C1135       C  0.70269451  0.67333400  0.37318265     0.07200
C1136       C  0.71370693  0.67426285  0.39052402    -0.27100
H1137       H  0.72831395  0.61346764  0.32849941     0.11900
H1138       H  0.75985626  0.57780327  0.33078737     0.13000
H1139       H  0.73751560  0.66984035  0.42185330     0.12100
H1140       H  0.76935883  0.63486795  0.42400813     0.11300
H1141       H  0.79579352  0.59577494  0.40861448     0.16700
H1142       H  0.78937636  0.55845616  0.34936689     0.12600
H1143       H  0.70238786  0.65297193  0.34351335     0.15500
H1144       H  0.70759280  0.68882232  0.40314094     0.15300
C1145       C  0.64522783  0.93694934  0.40084720    -0.17600
C1146       C  0.64174094  0.97685647  0.40184287    -0.19800
C1147       C  0.63203334  0.99611141  0.38661911     0.20900
C1148       C  0.62565469  0.97510604  0.37026353    -0.02700
C1149       C  0.62909328  0.93478133  0.36929818    -0.05800
C1150       C  0.63896724  0.91566036  0.38465703     0.21200
C1151       C  0.62248201  0.91357624  0.35307496     0.19300
C1152       C  0.61275051  0.93287597  0.33786758    -0.17200
C1153       C  0.60957406  0.97298268  0.33871585    -0.19500
C1154       C  0.61595265  0.99439481  0.35485305     0.20800
C1155       C  0.61322445  0.03482375  0.35566860    -0.32500
C1156       C  0.62011944  0.05606245  0.37171146     0.01500
C1157       C  0.62903932  0.03619906  0.38731175    -0.23800
C1158       C  0.64187667  0.87542364  0.38384556    -0.28400
C1159       C  0.63457503  0.85394593  0.36811585     0.07200
C1160       C  0.62524524  0.87330393  0.35260394    -0.27100
H1161       H  0.65272139  0.92270594  0.41278609     0.11900
H1162       H  0.64674619  0.99271979  0.41448916     0.13000
H1163       H  0.60755695  0.91692739  0.32531624     0.12100
H1164       H  0.60213488  0.98724255  0.32675685     0.11300
H1165       H  0.60641695  0.04982198  0.34357176     0.16700
H1166       H  0.63433985  0.05212909  0.39983253     0.12600
H1167       H  0.64881327  0.86059203  0.39593552     0.15500
H1168       H  0.61957510  0.85682154  0.34041084     0.15300
C1169       C  0.60561011  0.47257108  0.39541838    -0.17600
C1170       C  0.60841982  0.43258355  0.39698596    -0.19800
C1171       C  0.62242477  0.41361881  0.38517233     0.20900
C1172       C  0.63387407  0.43497301  0.37174287    -0.02700
C1173       C  0.63107717  0.47543720  0.37020299    -0.05800
C1174       C  0.61684125  0.49422702  0.38208528     0.21200
C1175       C  0.64248130  0.49703568  0.35680842     0.19300
C1176       C  0.65662918  0.47796660  0.34512136    -0.17200
C1177       C  0.65928427  0.43771713  0.34653743    -0.19500
C1178       C  0.64789208  0.41586056  0.35972514     0.20800
C1179       C  0.64981294  0.37519928  0.36076682    -0.32500
C1180       C  0.63785087  0.35369684  0.37371141     0.01500
C1181       C  0.62469188  0.37345043  0.38623623    -0.23800
C1182       C  0.61425570  0.53443808  0.38069125    -0.28400
C1183       C  0.62578974  0.55638943  0.36766321     0.07200
C1184       C  0.63971259  0.53735626  0.35556298    -0.27100
H1185       H  0.59466252  0.48656582  0.40465359     0.11900
H1186       H  0.59949252  0.41641494  0.40733146     0.13000
H1187       H  0.66559434  0.49416740  0.33481906     0.12100
H1188       H  0.67014347  0.42366596  0.33722839     0.11300
H1189       H  0.66001956  0.36030587  0.35108849     0.16700
H1190       H  0.61551186  0.35739796  0.39642692     0.12600
H1191       H  0.60353875  0.54873931  0.39007495     0.15500
H1192       H  0.64881758  0.55400776  0.34555236     0.15300
C1193       C  0.74595257  0.05192359  0.37371486    -0.17600
C1194       C  0.72675792  0.06785359  0.37357184    -0.19800
C1195       C  0.72405217  0.10786225  0.37081660     0.20900
C1196       C  0.74074908  0.13210414  0.36788926    -0.02700
C1197       C  0.76012890  0.11614066  0.36839092    -0.05800
C1198       C  0.76273629  0.07582889  0.37131907     0.21200
C1199       C  0.77688512  0.14058489  0.36625539     0.19300
C1200       C  0.77414322  0.18043862  0.36297133    -0.17200
C1201       C  0.75489595  0.19616348  0.36213205    -0.19500
C1202       C  0.73809810  0.17235743  0.36479950     0.20800
C1203       C  0.71873594  0.18812659  0.36486482    -0.32500
C1204       C  0.70217156  0.16422617  0.36857924     0.01500
C1205       C  0.70494115  0.12412664  0.37128733    -0.23800
C1206       C  0.78207694  0.06024894  0.37205124    -0.28400
C1207       C  0.79874421  0.08471293  0.37055503     0.07200
C1208       C  0.79608108  0.12475894  0.36762302    -0.27100
H1209       H  0.74768302  0.02098744  0.37596719     0.11900
H1210       H  0.71401793  0.04890206  0.37574943     0.13000
H1211       H  0.78690219  0.19949942  0.36116407     0.12100
H1212       H  0.75315846  0.22704804  0.35970932     0.11300
H1213       H  0.71660532  0.21902761  0.36274199     0.16700
H1214       H  0.69212797  0.10548766  0.37382435     0.12600
H1215       H  0.78419589  0.02938240  0.37430851     0.15500
H1216       H  0.80902277  0.14353392  0.36618069     0.15300
C1217       C  0.74521879  0.93544696  0.14462369    -0.17600
C1218       C  0.72652163  0.91753083  0.14590922    -0.19800
C1219       C  0.72283964  0.88256095  0.13608213     0.20900
C1220       C  0.73806020  0.86534970  0.12492087    -0.02700
C1221       C  0.75692063  0.88344993  0.12362347    -0.05800
C1222       C  0.76051500  0.91871444  0.13351328     0.21200
C1223       C  0.77214855  0.86628130  0.11244094     0.19300
C1224       C  0.76851569  0.83113506  0.10276460    -0.17200
C1225       C  0.74978305  0.81329542  0.10398583    -0.19500
C1226       C  0.73440401  0.83021419  0.11492434     0.20800
C1227       C  0.71537874  0.81299321  0.11584199    -0.32500
C1228       C  0.70005572  0.83032632  0.12675192     0.01500
C1229       C  0.70406818  0.86487957  0.13702984    -0.23800
C1230       C  0.77937677  0.93636505  0.13224848    -0.28400
C1231       C  0.79466769  0.91923798  0.12120890     0.07200
C1232       C  0.79083079  0.88431210  0.11123074    -0.27100
H1233       H  0.74770806  0.96246057  0.15233199     0.11900
H1234       H  0.71492041  0.93107632  0.15451643     0.13000
H1235       H  0.78013720  0.81753575  0.09420788     0.12100
H1236       H  0.74729914  0.78628662  0.09627584     0.11300
H1237       H  0.71244651  0.78642096  0.10789921     0.16700
H1238       H  0.69240389  0.87877020  0.14543641     0.12600
H1239       H  0.78221668  0.96312589  0.14006969     0.15500
H1240       H  0.80251564  0.87058282  0.10278841     0.15300
C1241       C  0.66023290  0.74820476  0.25855213    -0.17600
C1242       C  0.65999938  0.76023264  0.23920211    -0.19800
C1243       C  0.64186935  0.76290024  0.22911821     0.20900
C1244       C  0.62379415  0.75342800  0.23861162    -0.02700
C1245       C  0.62399910  0.74192804  0.25818455    -0.05800
C1246       C  0.64232827  0.73906268  0.26815569     0.21200
C1247       C  0.60584843  0.73356415  0.26780434     0.19300
C1248       C  0.58774408  0.73591255  0.25768980    -0.17200
C1249       C  0.58758515  0.74644333  0.23815410    -0.19500
C1250       C  0.60549245  0.75534652  0.22854097     0.20800
C1251       C  0.60542526  0.76581780  0.20898297    -0.32500
C1252       C  0.62332573  0.77529757  0.19948800     0.01500
C1253       C  0.64148133  0.77436431  0.20964470    -0.23800
C1254       C  0.64236171  0.72774991  0.28764329    -0.28400
C1255       C  0.62428390  0.72059391  0.29738751     0.07200
C1256       C  0.60610041  0.72348439  0.28743778    -0.27100
H1257       H  0.67441121  0.74629744  0.26605030     0.11900
H1258       H  0.67399681  0.76726688  0.23209757     0.13000
H1259       H  0.57371298  0.72950525  0.26487922     0.12100
H1260       H  0.57343400  0.74782687  0.23058149     0.11300
H1261       H  0.59142766  0.76659089  0.20109772     0.16700
H1262       H  0.65533626  0.78116470  0.20219598     0.12600
H1263       H  0.65637316  0.72610259  0.29547132     0.15500
H1264       H  0.59217289  0.71800036  0.29503184     0.15300
C1265       C  0.63130240  0.52183611  0.09197375    -0.17600
C1266       C  0.63462833  0.56187417  0.09192742    -0.19800
C1267       C  0.63237135  0.58345719  0.10901047     0.20900
C1268       C  0.62652137  0.56448709  0.12630087    -0.02700
C1269       C  0.62323080  0.52403608  0.12636367    -0.05800
C1270       C  0.62572651  0.50272329  0.10912015     0.21200
C1271       C  0.61759059  0.50492211  0.14367351     0.19300
C1272       C  0.61508943  0.52663188  0.16071066    -0.17200
C1273       C  0.61810857  0.56683394  0.16059958    -0.19500
C1274       C  0.62383927  0.58594694  0.14348693     0.20800
C1275       C  0.62655234  0.62624724  0.14315404    -0.32500
C1276       C  0.63216393  0.64535826  0.12594152     0.01500
C1277       C  0.63541981  0.62376669  0.10900825    -0.23800
C1278       C  0.62302222  0.46251256  0.10935803    -0.28400
C1279       C  0.61805254  0.44292470  0.12663063     0.07200
C1280       C  0.61496032  0.46440507  0.14369412    -0.27100
H1281       H  0.63323409  0.50575385  0.07861256     0.11900
H1282       H  0.63894724  0.57596514  0.07851605     0.13000
H1283       H  0.61080692  0.51252670  0.17412519     0.12100
H1284       H  0.61597415  0.58298732  0.17391265     0.11300
H1285       H  0.62390124  0.64297301  0.15621916     0.16700
H1286       H  0.63932292  0.63856664  0.09565548     0.12600
H1287       H  0.62529073  0.44627130  0.09608065     0.15500
H1288       H  0.61125449  0.44952640  0.15706818     0.15300
C1289       C  0.64798100  0.02280853  0.15520758    -0.17600
C1290       C  0.65040662  0.06308400  0.15384960    -0.19800
C1291       C  0.63987447  0.08439640  0.13987982     0.20900
C1292       C  0.62667662  0.06485974  0.12723657    -0.02700
C1293       C  0.62417753  0.02433232  0.12864604    -0.05800
C1294       C  0.63494227  0.00320018  0.14264034     0.21200
C1295       C  0.61105234  0.00495147  0.11589452     0.19300
C1296       C  0.60038864  0.02620121  0.10203592    -0.17200
C1297       C  0.60281209  0.06633192  0.10067779    -0.19500
C1298       C  0.61595059  0.08578271  0.11315538     0.20800
C1299       C  0.61830092  0.12592622  0.11190051    -0.32500
C1300       C  0.63107566  0.14589028  0.12464896     0.01500
C1301       C  0.64204807  0.12489348  0.13847409    -0.23800
C1302       C  0.63279884  0.96275115  0.14353054    -0.28400
C1303       C  0.62018398  0.94311385  0.13045212     0.07200
C1304       C  0.60912196  0.96456148  0.11691059    -0.27100
H1305       H  0.65637402  0.00697214  0.16602417     0.11900
H1306       H  0.66054704  0.07754897  0.16371268     0.13000
H1307       H  0.59025482  0.01175095  0.09216198     0.12100
H1308       H  0.59442803  0.08215767  0.08984785     0.11300
H1309       H  0.60979689  0.14175587  0.10114648     0.16700
H1310       H  0.65176394  0.14010232  0.14846847     0.12600
H1311       H  0.64148645  0.94649696  0.15397770     0.15500
H1312       H  0.59937115  0.94974709  0.10680061     0.15300
C1313       C  0.73700284  0.36531449  0.16024303    -0.17600
C1314       C  0.75491239  0.38642569  0.16088289    -0.19800
C1315       C  0.76393845  0.39985366  0.14374555     0.20900
C1316       C  0.75466864  0.39213436  0.12578369    -0.02700
C1317       C  0.73648399  0.37117350  0.12515503    -0.05800
C1318       C  0.72765706  0.35747850  0.14246238     0.21200
C1319       C  0.72712358  0.36404244  0.10719773     0.19300
C1320       C  0.73614263  0.37730496  0.09004699    -0.17200
C1321       C  0.75433918  0.39727599  0.09063245    -0.19500
C1322       C  0.76373200  0.40477066  0.10840462     0.20800
C1323       C  0.78236114  0.42345580  0.10903193    -0.32500
C1324       C  0.79196830  0.43035683  0.12680048     0.01500
C1325       C  0.78240920  0.41953124  0.14416149    -0.23800
C1326       C  0.70942886  0.33704400  0.14170168    -0.28400
C1327       C  0.69962718  0.33125175  0.12390330     0.07200
C1328       C  0.70871719  0.34449768  0.10672248    -0.27100
H1329       H  0.73041671  0.35522119  0.17368781     0.11900
H1330       H  0.76182229  0.39190111  0.17479904     0.13000
H1331       H  0.72915122  0.37208267  0.07613783     0.12100
H1332       H  0.76110353  0.40677676  0.07716272     0.11300
H1333       H  0.78979421  0.43143440  0.09562535     0.16700
H1334       H  0.78997245  0.42404793  0.15785328     0.12600
H1335       H  0.70235212  0.32748559  0.15502159     0.15500
H1336       H  0.70121608  0.34021625  0.09297003     0.15300
C1337       C  0.59025035  0.24475272  0.23831572    -0.17600
C1338       C  0.59070321  0.23252603  0.25766617    -0.19800
C1339       C  0.60892005  0.22972472  0.26761063     0.20900
C1340       C  0.62690016  0.23872305  0.25783841    -0.02700
C1341       C  0.62646620  0.25056735  0.23824372    -0.05800
C1342       C  0.60802245  0.25408910  0.22850563     0.21200
C1343       C  0.64448304  0.25905795  0.22844459     0.19300
C1344       C  0.66272712  0.25584500  0.23829616    -0.17200
C1345       C  0.66312331  0.24486256  0.25780011    -0.19500
C1346       C  0.64530238  0.23643377  0.26770841     0.20800
C1347       C  0.64554136  0.22653084  0.28740910    -0.32500
C1348       C  0.62766747  0.21824882  0.29736528     0.01500
C1349       C  0.60944498  0.21900862  0.28725810    -0.23800
C1350       C  0.60770767  0.26659864  0.20911006    -0.28400
C1351       C  0.62564194  0.27452100  0.19920651     0.07200
C1352       C  0.64395641  0.27047953  0.20894984    -0.27100
H1353       H  0.57597915  0.24698650  0.23103129     0.11900
H1354       H  0.57676221  0.22571187  0.26492973     0.13000
H1355       H  0.67668777  0.26218870  0.23096373     0.12100
H1356       H  0.67737690  0.24310687  0.26516064     0.11300
H1357       H  0.65965121  0.22573094  0.29508717     0.16700
H1358       H  0.59561106  0.21292928  0.29488741     0.12600
H1359       H  0.59359618  0.26890945  0.20152353     0.15500
H1360       H  0.65782035  0.27633451  0.20131988     0.15300
C1361       C  0.23202063  0.84522674  0.39791477    -0.17600
C1362       C  0.25077179  0.82749383  0.39625833    -0.19800
C1363       C  0.26488521  0.84126640  0.38283934     0.20900
C1364       C  0.25996163  0.87320540  0.37092039    -0.02700
C1365       C  0.24104360  0.89120299  0.37263143    -0.05800
C1366       C  0.22703337  0.87709561  0.38617553     0.21200
C1367       C  0.23614074  0.92318573  0.36072638     0.19300
C1368       C  0.25024205  0.93691682  0.34729774    -0.17200
C1369       C  0.26897577  0.91916825  0.34562840    -0.19500
C1370       C  0.27396916  0.88733780  0.35737327     0.20800
C1371       C  0.29287180  0.86993903  0.35603308    -0.32500
C1372       C  0.29819864  0.83873211  0.36821984     0.01500
C1373       C  0.28393725  0.82419710  0.38138989    -0.23800
C1374       C  0.20815592  0.89463213  0.38752881    -0.28400
C1375       C  0.20287571  0.92598722  0.37537222     0.07200
C1376       C  0.21713335  0.94041148  0.36220322    -0.27100
H1377       H  0.22139720  0.83396670  0.40836608     0.11900
H1378       H  0.25425852  0.80303724  0.40554018     0.13000
H1379       H  0.24676399  0.96138723  0.33802438     0.12100
H1380       H  0.27959660  0.93042817  0.33517516     0.11300
H1381       H  0.30364775  0.88154375  0.34581266     0.16700
H1382       H  0.28782422  0.80029946  0.39088797     0.12600
H1383       H  0.19738302  0.88308675  0.39776902     0.15500
H1384       H  0.21327908  0.96437605  0.35273610     0.15300
C1385       C  0.51924656  0.81392951  0.38461875    -0.17600
C1386       C  0.49895666  0.82369098  0.38407352    -0.19800
C1387       C  0.48437088  0.79469488  0.38206717     0.20900
C1388       C  0.49030156  0.75536122  0.38117519    -0.02700
C1389       C  0.51074750  0.74545428  0.38211440    -0.05800
C1390       C  0.52527336  0.77497509  0.38339677     0.21200
C1391       C  0.51667178  0.70610381  0.38116048     0.19300
C1392       C  0.50206842  0.67707567  0.37957543    -0.17200
C1393       C  0.48183919  0.68693133  0.37831891    -0.19500
C1394       C  0.47584830  0.72595507  0.37886004     0.20800
C1395       C  0.45569037  0.73609461  0.37681774    -0.32500
C1396       C  0.44965684  0.77516847  0.37751576     0.01500
C1397       C  0.46401752  0.80431413  0.38055079    -0.23800
C1398       C  0.54556819  0.76509415  0.38274374    -0.28400
C1399       C  0.55155996  0.72607948  0.38113371     0.07200
C1400       C  0.53709069  0.69660903  0.38104253    -0.27100
H1401       H  0.53024783  0.83690536  0.38572465     0.11900
H1402       H  0.49469654  0.85399063  0.38482858     0.13000
H1403       H  0.50632491  0.64677209  0.37885729     0.12100
H1404       H  0.47087558  0.66400961  0.37669651     0.11300
H1405       H  0.44460971  0.71347547  0.37479978     0.16700
H1406       H  0.45941069  0.83445668  0.38113434     0.12600
H1407       H  0.55676926  0.78784988  0.38306119     0.15500
H1408       H  0.54171256  0.66655634  0.37976114     0.15300
C1409       C  0.37259553  0.56957412  0.33776682    -0.17600
C1410       C  0.37500593  0.52930590  0.33846032    -0.19800
C1411       C  0.37385671  0.50950466  0.35619152     0.20900
C1412       C  0.36967025  0.53030397  0.37334745    -0.02700
C1413       C  0.36674564  0.57089596  0.37257435    -0.05800
C1414       C  0.36865756  0.59063717  0.35474524     0.21200
C1415       C  0.36238700  0.59180848  0.38967038     0.19300
C1416       C  0.36076837  0.57177692  0.40733503    -0.17200
C1417       C  0.36394597  0.53159364  0.40814356    -0.19500
C1418       C  0.36863966  0.51063991  0.39127390     0.20800
C1419       C  0.37226016  0.47041804  0.39195713    -0.32500
C1420       C  0.37631780  0.44956517  0.37485360     0.01500
C1421       C  0.37685790  0.46928121  0.35703644    -0.23800
C1422       C  0.36717670  0.63119227  0.35426879    -0.28400
C1423       C  0.36333561  0.65235941  0.37127545     0.07200
C1424       C  0.36038627  0.63245020  0.38885848    -0.27100
H1425       H  0.37397543  0.58430089  0.32395177     0.11900
H1426       H  0.37809939  0.51371479  0.32515541     0.13000
H1427       H  0.35738656  0.58729498  0.42059780     0.12100
H1428       H  0.36286840  0.51694420  0.42199769     0.11300
H1429       H  0.37125825  0.45512256  0.40565382     0.16700
H1430       H  0.37969121  0.45320975  0.34380322     0.12600
H1431       H  0.36942258  0.64647672  0.34069443     0.15500
H1432       H  0.35766642  0.64874218  0.40204198     0.15300
C1433       C  0.37088388  0.03591741  0.34268123    -0.17600
C1434       C  0.36759607  0.07575904  0.34427924    -0.19800
C1435       C  0.36753881  0.09368141  0.36251054     0.20900
C1436       C  0.37108396  0.07153046  0.37933632    -0.02700
C1437       C  0.37467705  0.03131409  0.37768865    -0.05800
C1438       C  0.37433265  0.01346855  0.35927472     0.21200
C1439       C  0.37841249  0.00894408  0.39441559     0.19300
C1440       C  0.37865893  0.02715766  0.41263494    -0.17200
C1441       C  0.37506990  0.06712540  0.41427722    -0.19500
C1442       C  0.37116573  0.08960008  0.39773167     0.20800
C1443       C  0.36781684  0.12989358  0.39909972    -0.32500
C1444       C  0.36468386  0.15190756  0.38223090     0.01500
C1445       C  0.36442830  0.13358509  0.36410066    -0.23800
C1446       C  0.37701358  0.97334474  0.35775243    -0.28400
C1447       C  0.38022039  0.95061545  0.37433437     0.07200
C1448       C  0.38136679  0.96868478  0.39261617    -0.27100
H1449       H  0.37065213  0.02262148  0.32845389     0.11900
H1450       H  0.36501796  0.09255278  0.33125018     0.13000
H1451       H  0.38150652  0.01044543  0.42563372     0.12100
H1452       H  0.37534594  0.08044957  0.42849439     0.11300
H1453       H  0.36863953  0.14433391  0.41303120     0.16700
H1454       H  0.36242952  0.15085084  0.35109954     0.12600
H1455       H  0.37620421  0.95962136  0.34363393     0.15500
H1456       H  0.38365639  0.95123647  0.40548851     0.15300
C1457       C  0.23080387  0.34763571  0.40568654    -0.17600
C1458       C  0.24974209  0.33042634  0.40529845    -0.19800
C1459       C  0.26440092  0.34354536  0.39228515     0.20900
C1460       C  0.25987645  0.37453520  0.37958713    -0.02700
C1461       C  0.24077823  0.39201614  0.38002160    -0.05800
C1462       C  0.22619301  0.37836154  0.39308834     0.21200
C1463       C  0.23624861  0.42291596  0.36727903     0.19300
C1464       C  0.25093259  0.43620937  0.35434103    -0.17200
C1465       C  0.26984604  0.41893770  0.35391939    -0.19500
C1466       C  0.27440365  0.38802661  0.36642966     0.20800
C1467       C  0.29328930  0.37055165  0.36603133    -0.32500
C1468       C  0.29809965  0.33975619  0.37871182     0.01500
C1469       C  0.28349400  0.32639472  0.39179760    -0.23800
C1470       C  0.20714756  0.39524219  0.39317358    -0.28400
C1471       C  0.20229902  0.42559918  0.38028020     0.07200
C1472       C  0.21705682  0.43954181  0.36750599    -0.27100
H1473       H  0.21972836  0.33681507  0.41580425     0.11900
H1474       H  0.25290512  0.30674244  0.41516901     0.13000
H1475       H  0.24776292  0.45988489  0.34446454     0.12100
H1476       H  0.28090469  0.42969762  0.34376645     0.11300
H1477       H  0.30435998  0.38146343  0.35591984     0.16700
H1478       H  0.28700943  0.30291230  0.40168177     0.12600
H1479       H  0.19596214  0.38409661  0.40310034     0.15500
H1480       H  0.21350427  0.46272903  0.35745823     0.15300
C1481       C  0.48233658  0.19985583  0.35806592    -0.17600
C1482       C  0.50260812  0.19000030  0.35734885    -0.19800
C1483       C  0.51700056  0.21451256  0.36560670     0.20900
C1484       C  0.51081535  0.24915108  0.37482619    -0.02700
C1485       C  0.49034953  0.25913507  0.37552697    -0.05800
C1486       C  0.47610139  0.23439877  0.36704351     0.21200
C1487       C  0.48416672  0.29384126  0.38469557     0.19300
C1488       C  0.49855457  0.31817219  0.39308751    -0.17200
C1489       C  0.51882025  0.30828874  0.39240240    -0.19500
C1490       C  0.52507020  0.27391258  0.38330331     0.20800
C1491       C  0.54534388  0.26401320  0.38247969    -0.32500
C1492       C  0.55174305  0.22976190  0.37316611     0.01500
C1493       C  0.53743787  0.20509903  0.36475689    -0.23800
C1494       C  0.45585020  0.24453814  0.36771279    -0.28400
C1495       C  0.44942897  0.27904060  0.37686681     0.07200
C1496       C  0.46374189  0.30354733  0.38535363    -0.27100
H1497       H  0.47151658  0.18046246  0.35154189     0.11900
H1498       H  0.50703089  0.16326097  0.35028624     0.13000
H1499       H  0.49413514  0.34487768  0.40018240     0.12100
H1500       H  0.52963533  0.32761702  0.39898030     0.11300
H1501       H  0.55620084  0.28340193  0.38896802     0.16700
H1502       H  0.54217857  0.17860631  0.35763956     0.12600
H1503       H  0.44503059  0.22511037  0.36120057     0.15500
H1504       H  0.45901295  0.33006984  0.39244877     0.15300
C1505       C  0.23821975  0.62755159  0.09144271    -0.17600
C1506       C  0.25607684  0.64880225  0.09108891    -0.19800
C1507       C  0.26547183  0.65970396  0.10842137     0.20900
C1508       C  0.25660510  0.64943065  0.12630418    -0.02700
C1509       C  0.23845989  0.62835286  0.12665737    -0.05800
C1510       C  0.22930721  0.61704541  0.10912808     0.21200
C1511       C  0.22949516  0.61860411  0.14454358     0.19300
C1512       C  0.23885066  0.62953528  0.16189561    -0.17200
C1513       C  0.25702265  0.64964070  0.16154932    -0.19500
C1514       C  0.26602831  0.65962618  0.14384390     0.20800
C1515       C  0.28459197  0.67851531  0.14338099    -0.32500
C1516       C  0.29382266  0.68784801  0.12563472     0.01500
C1517       C  0.28389877  0.67944271  0.10819949    -0.23800
C1518       C  0.21124848  0.59606363  0.10959721    -0.28400
C1519       C  0.20191513  0.58728729  0.12735367     0.07200
C1520       C  0.21120449  0.59858606  0.14475967    -0.27100
H1521       H  0.23135425  0.61934422  0.07784010     0.11900
H1522       H  0.26266975  0.65631844  0.07723411     0.13000
H1523       H  0.23217235  0.62230105  0.17575767     0.12100
H1524       H  0.26407318  0.65726864  0.17514203     0.11300
H1525       H  0.29220990  0.68490788  0.15685936     0.16700
H1526       H  0.29109543  0.68603772  0.09449412     0.12600
H1527       H  0.20397091  0.58816329  0.09614100     0.15500
H1528       H  0.20402549  0.59215303  0.15849921     0.15300
C1529       C  0.49446888  0.68207073  0.11442153    -0.17600
C1530       C  0.51493919  0.69002008  0.11539627    -0.19800
C1531       C  0.52180420  0.72848502  0.11621672     0.20900
C1532       C  0.50796873  0.75932369  0.11588722    -0.02700
C1533       C  0.48731015  0.75128311  0.11525277    -0.05800
C1534       C  0.48052059  0.71245050  0.11448222     0.21200
C1535       C  0.47345832  0.78208057  0.11574545     0.19300
C1536       C  0.48032472  0.82055862  0.11635804    -0.17200
C1537       C  0.50081079  0.82854874  0.11661144    -0.19500
C1538       C  0.51475646  0.79816916  0.11649669     0.20800
C1539       C  0.53533874  0.80589000  0.11731616    -0.32500
C1540       C  0.54909567  0.77522664  0.11821025     0.01500
C1541       C  0.54224522  0.73665853  0.11761369    -0.23800
C1542       C  0.45991658  0.70469184  0.11428155    -0.28400
C1543       C  0.44611246  0.73525260  0.11548587     0.07200
C1544       C  0.45298331  0.77382669  0.11602434    -0.27100
H1545       H  0.48953497  0.65214115  0.11389283     0.11900
H1546       H  0.52541486  0.66604179  0.11558777     0.13000
H1547       H  0.46983145  0.84450685  0.11672959     0.12100
H1548       H  0.50574542  0.85848114  0.11714329     0.11300
H1549       H  0.54062700  0.83561433  0.11793294     0.16700
H1550       H  0.55289977  0.71296427  0.11817163     0.12600
H1551       H  0.45463328  0.67494808  0.11407001     0.15500
H1552       H  0.44231987  0.79748704  0.11686325     0.15300
C1553       C  0.41192458  0.75941882  0.25704650    -0.17600
C1554       C  0.41120194  0.74831217  0.23757448    -0.19800
C1555       C  0.39312225  0.74967733  0.22735565     0.20900
C1556       C  0.37569430  0.76340949  0.23666560    -0.02700
C1557       C  0.37654511  0.77558779  0.25616735    -0.05800
C1558       C  0.39464788  0.77265976  0.26652160     0.21200
C1559       C  0.35918115  0.78971263  0.26543857     0.19300
C1560       C  0.34120829  0.79198786  0.25505433    -0.17200
C1561       C  0.34028111  0.77925161  0.23582159    -0.19500
C1562       C  0.35737232  0.76450514  0.22657548     0.20800
C1563       C  0.35652477  0.75100490  0.20740803    -0.32500
C1564       C  0.37389718  0.73777682  0.19804963     0.01500
C1565       C  0.39216133  0.73755964  0.20799812    -0.23800
C1566       C  0.39499048  0.78176751  0.28631884    -0.28400
C1567       C  0.37759828  0.79463775  0.29577911     0.07200
C1568       C  0.35992946  0.79988068  0.28511681    -0.27100
H1569       H  0.42596560  0.75728184  0.26475664     0.11900
H1570       H  0.42472110  0.73802399  0.23059585     0.13000
H1571       H  0.32775884  0.80285621  0.26193874     0.12100
H1572       H  0.32615639  0.78071219  0.22821249     0.11300
H1573       H  0.34253649  0.75208019  0.19952189     0.16700
H1574       H  0.40558787  0.72777193  0.20064721     0.12600
H1575       H  0.40867061  0.77803552  0.29449857     0.15500
H1576       H  0.34646493  0.80960850  0.29241848     0.15300
C1577       C  0.38622098  0.94041070  0.15746491    -0.17600
C1578       C  0.38835808  0.98078171  0.15789905    -0.19800
C1579       C  0.37947326  0.00384044  0.14356341     0.20900
C1580       C  0.36820750  0.98593598  0.12872472    -0.02700
C1581       C  0.36594301  0.94528397  0.12835128    -0.05800
C1582       C  0.37512052  0.92249259  0.14271512     0.21200
C1583       C  0.35469858  0.92745264  0.11347119     0.19300
C1584       C  0.34567436  0.95049145  0.09923744    -0.17200
C1585       C  0.34793739  0.99076966  0.09958940    -0.19500
C1586       C  0.35922803  0.00860928  0.11420768     0.20800
C1587       C  0.36149588  0.04883242  0.11461232    -0.32500
C1588       C  0.37238272  0.06718312  0.12949858     0.01500
C1589       C  0.38146932  0.04444563  0.14388794    -0.23800
C1590       C  0.37342748  0.88210453  0.14182584    -0.28400
C1591       C  0.36281844  0.86399372  0.12666918     0.07200
C1592       C  0.35309609  0.88688524  0.11279767    -0.27100
H1593       H  0.39335671  0.92317095  0.16860510     0.11900
H1594       H  0.39700949  0.99394446  0.16940437     0.13000
H1595       H  0.33700378  0.93734043  0.08773798     0.12100
H1596       H  0.34088257  0.00798582  0.08839338     0.11300
H1597       H  0.35431705  0.06590522  0.10342601     0.16700
H1598       H  0.38978252  0.05828516  0.15543723     0.12600
H1599       H  0.38083645  0.86469756  0.15274401     0.15500
H1600       H  0.34496863  0.87315023  0.10108653     0.15300
C1601       C  0.34344345  0.45003239  0.15538570    -0.17600
C1602       C  0.34616217  0.49022781  0.15635543    -0.19800
C1603       C  0.35985505  0.50880546  0.14401152     0.20900
C1604       C  0.37124477  0.48665178  0.13084136    -0.02700
C1605       C  0.36850096  0.44610510  0.12986770    -0.05800
C1606       C  0.35437915  0.42774075  0.14206913     0.21200
C1607       C  0.37972954  0.42404870  0.11655053     0.19300
C1608       C  0.39382268  0.44246491  0.10456015    -0.17200
C1609       C  0.39644349  0.48268108  0.10543570    -0.19500
C1610       C  0.38506353  0.50507480  0.11836058     0.20800
C1611       C  0.38681728  0.54563293  0.11861567    -0.32500
C1612       C  0.37491508  0.56804374  0.13118217     0.01500
C1613       C  0.36188131  0.54926090  0.14420708    -0.23800
C1614       C  0.35151952  0.38743245  0.14081589    -0.28400
C1615       C  0.36270821  0.36523125  0.12760437     0.07200
C1616       C  0.37673458  0.38392339  0.11547979    -0.27100
H1617       H  0.33265738  0.43641667  0.16495476     0.11900
H1618       H  0.33734835  0.50686465  0.16658893     0.13000
H1619       H  0.40267401  0.42581004  0.09436155     0.12100
H1620       H  0.40719002  0.49631863  0.09583075     0.11300
H1621       H  0.39700063  0.55977140  0.10861313     0.16700
H1622       H  0.35265698  0.56618799  0.15398299     0.12600
H1623       H  0.34092582  0.37328785  0.15040638     0.15500
H1624       H  0.38558688  0.36717500  0.10531013     0.15300
C1625       C  0.21941285  0.18395256  0.13429952    -0.17600
C1626       C  0.23815062  0.20194539  0.13519170    -0.19800
C1627       C  0.25569911  0.17967472  0.13498470     0.20900
C1628       C  0.25423569  0.13870211  0.13424849    -0.02700
C1629       C  0.23530467  0.12049451  0.13365489    -0.05800
C1630       C  0.21786788  0.14334329  0.13337444     0.21200
C1631       C  0.23384221  0.07951820  0.13294965     0.19300
C1632       C  0.25138074  0.05722386  0.13288550    -0.17200
C1633       C  0.27012890  0.07526749  0.13315794    -0.19500
C1634       C  0.27168328  0.11592032  0.13370969     0.20800
C1635       C  0.29038718  0.13418267  0.13333614    -0.32500
C1636       C  0.29205697  0.17498083  0.13376011     0.01500
C1637       C  0.27464896  0.19760189  0.13503234    -0.23800
C1638       C  0.19920142  0.12524525  0.13178395    -0.28400
C1639       C  0.19758197  0.08454409  0.13082293     0.07200
C1640       C  0.21491367  0.06170344  0.13186907    -0.27100
H1641       H  0.20610212  0.20185883  0.13417095     0.11900
H1642       H  0.23891907  0.23333043  0.13573980     0.13000
H1643       H  0.25060719  0.02583617  0.13232316     0.12100
H1644       H  0.28344777  0.05738992  0.13278767     0.11300
H1645       H  0.30378298  0.11651303  0.13256031     0.16700
H1646       H  0.27583651  0.22896953  0.13526370     0.12600
H1647       H  0.18580242  0.14292519  0.13119854     0.15500
H1648       H  0.21370238  0.03036934  0.13106679     0.15300
C1649       C  0.47780039  0.31990922  0.13203725    -0.17600
C1650       C  0.49832787  0.32780854  0.13144569    -0.19800
C1651       C  0.51226680  0.29740200  0.13064203     0.20900
C1652       C  0.50538455  0.25860879  0.13057988    -0.02700
C1653       C  0.48467657  0.25061555  0.13167590    -0.05800
C1654       C  0.47083615  0.28145524  0.13214372     0.21200
C1655       C  0.47783008  0.21179486  0.13210826     0.19300
C1656       C  0.49174809  0.18140248  0.13117270    -0.17200
C1657       C  0.51221450  0.18932152  0.12962984    -0.19500
C1658       C  0.51917768  0.22777459  0.12932092     0.20800
C1659       C  0.53968425  0.23591875  0.12780822    -0.32500
C1660       C  0.54671870  0.27442002  0.12822126     0.01500
C1661       C  0.53293088  0.30505002  0.12982692    -0.23800
C1662       C  0.45028824  0.27327483  0.13245279    -0.28400
C1663       C  0.44336686  0.23470562  0.13288002     0.07200
C1664       C  0.45720129  0.20408715  0.13310521    -0.27100
H1665       H  0.46735390  0.34392731  0.13243291     0.11900
H1666       H  0.50329732  0.35773370  0.13144459     0.13000
H1667       H  0.48678732  0.15147050  0.13141479     0.12100
H1668       H  0.52262780  0.16530252  0.12873898     0.11300
H1669       H  0.55027726  0.21218802  0.12673276     0.16700
H1670       H  0.53827600  0.33474732  0.13003334     0.12600
H1671       H  0.43960559  0.29694841  0.13239361     0.15500
H1672       H  0.45187578  0.17436445  0.13327583     0.15300
C1673       C  0.33756196  0.29120972  0.24115637    -0.17600
C1674       C  0.33850076  0.29987842  0.26094382    -0.19800
C1675       C  0.35351395  0.28366396  0.27256599     0.20900
C1676       C  0.36758417  0.25810033  0.26419175    -0.02700
C1677       C  0.36666197  0.24941625  0.24422126    -0.05800
C1678       C  0.35161945  0.26616740  0.23265437     0.21200
C1679       C  0.38087922  0.22420729  0.23582739     0.19300
C1680       C  0.39577597  0.20769260  0.24747544    -0.17200
C1681       C  0.39662855  0.21612969  0.26727217    -0.19500
C1682       C  0.38265676  0.24137457  0.27573063     0.20800
C1683       C  0.38359749  0.25033902  0.29550500    -0.32500
C1684       C  0.36982352  0.27622241  0.30394782     0.01500
C1685       C  0.35476874  0.29268855  0.29237326    -0.23800
C1686       C  0.35097836  0.25783166  0.21276882    -0.28400
C1687       C  0.36520031  0.23294551  0.20422076     0.07200
C1688       C  0.38005570  0.21614273  0.21592068    -0.27100
H1689       H  0.32589151  0.30425736  0.23247927     0.11900
H1690       H  0.32753254  0.31942456  0.26713741     0.13000
H1691       H  0.40680328  0.18829317  0.24126661     0.12100
H1692       H  0.40829046  0.20305631  0.27595240     0.11300
H1693       H  0.39523278  0.23741349  0.30428645     0.16700
H1694       H  0.34395778  0.31229909  0.29878927     0.12600
H1695       H  0.33947775  0.27104715  0.20393370     0.15500
H1696       H  0.39113539  0.19708797  0.20952216     0.15300
C1697       C  0.15136662  0.91039785  0.48858864    -0.17600
C1698       C  0.15229757  0.91022882  0.50881882    -0.19800
C1699       C  0.14063521  0.93616887  0.51968438     0.20900
C1700       C  0.12799125  0.96267801  0.51006541    -0.02700
C1701       C  0.12705541  0.96285761  0.48964951    -0.05800
C1702       C  0.13879761  0.93655827  0.47890940     0.21200
C1703       C  0.11437550  0.98929087  0.48000941     0.19300
C1704       C  0.10271166  0.01521277  0.49089301    -0.17200
C1705       C  0.10362585  0.01501331  0.51113756    -0.19500
C1706       C  0.11618676  0.98885512  0.52083021     0.20800
C1707       C  0.11692492  0.98806700  0.54110331    -0.32500
C1708       C  0.12918180  0.96122691  0.55083785     0.01500
C1709       C  0.14119030  0.93566909  0.53999495    -0.23800
C1710       C  0.13787895  0.93697864  0.45866301    -0.28400
C1711       C  0.12548961  0.96353397  0.44887166     0.07200
C1712       C  0.11366956  0.98947978  0.45967321    -0.27100
H1713       H  0.16048915  0.89004513  0.48050701     0.11900
H1714       H  0.16207107  0.88970609  0.51596255     0.13000
H1715       H  0.09289136  0.03565397  0.48375163     0.12100
H1716       H  0.09444305  0.03526256  0.51922476     0.11300
H1717       H  0.10763534  0.00797820  0.54929526     0.16700
H1718       H  0.15071473  0.91495931  0.54733033     0.12600
H1719       H  0.14703768  0.91675894  0.45052966     0.15500
H1720       H  0.10400328  0.00987449  0.45228839     0.15300
C1721       C  0.13353826  0.52741754  0.49211750    -0.17600
C1722       C  0.13518778  0.52641212  0.51230519    -0.19800
C1723       C  0.13211884  0.49159757  0.52244041     0.20900
C1724       C  0.12744047  0.45738641  0.51215340    -0.02700
C1725       C  0.12617624  0.45823363  0.49177710    -0.05800
C1726       C  0.12905753  0.49351169  0.48173822     0.21200
C1727       C  0.12209292  0.42376303  0.48145942     0.19300
C1728       C  0.11892933  0.38899828  0.49159728    -0.17200
C1729       C  0.11972678  0.38834614  0.51183055    -0.19500
C1730       C  0.12399722  0.42232835  0.52221850     0.20800
C1731       C  0.12484479  0.42189583  0.54249153    -0.32500
C1732       C  0.12965457  0.45577270  0.55277283     0.01500
C1733       C  0.13349772  0.49041316  0.54268411    -0.23800
C1734       C  0.12760146  0.49414091  0.46148931    -0.28400
C1735       C  0.12399347  0.45973735  0.45117010     0.07200
C1736       C  0.12134960  0.42464794  0.46118506    -0.27100
H1737       H  0.13587838  0.55467032  0.48461016     0.11900
H1738       H  0.13874680  0.55292622  0.52000572     0.13000
H1739       H  0.11574437  0.36233331  0.48387572     0.12100
H1740       H  0.11710076  0.36120733  0.51935587     0.11300
H1741       H  0.12200802  0.39511215  0.55028582     0.16700
H1742       H  0.13704544  0.51665481  0.55064346     0.12600
H1743       H  0.12991078  0.52111178  0.45369458     0.15500
H1744       H  0.11854967  0.39813726  0.45316704     0.15300
C1745       C  0.11070270  0.72364021  0.65689464    -0.17600
C1746       C  0.11521572  0.68406015  0.65746762    -0.19800
C1747       C  0.12364605  0.66559046  0.64126502     0.20900
C1748       C  0.12740154  0.68691283  0.62423519    -0.02700
C1749       C  0.12272743  0.72680882  0.62362260    -0.05800
C1750       C  0.11451369  0.74535067  0.64010033     0.21200
C1751       C  0.12662663  0.74825762  0.60666282     0.19300
C1752       C  0.13477130  0.72962512  0.59035648    -0.17200
C1753       C  0.13931547  0.69001188  0.59093617    -0.19500
C1754       C  0.13582118  0.66839734  0.60783418     0.20800
C1755       C  0.14012572  0.62846451  0.60849763    -0.32500
C1756       C  0.13581286  0.60695847  0.62526923     0.01500
C1757       C  0.12796035  0.62593626  0.64168193    -0.23800
C1758       C  0.11103354  0.78552358  0.63976730    -0.28400
C1759       C  0.11596994  0.80739452  0.62326927     0.07200
C1760       C  0.12306075  0.78826820  0.60654473    -0.27100
H1761       H  0.10442044  0.73734889  0.66965714     0.11900
H1762       H  0.11216006  0.66789647  0.67061476     0.13000
H1763       H  0.13783467  0.74579115  0.57721776     0.12100
H1764       H  0.14562539  0.67631398  0.57818067     0.11300
H1765       H  0.14581590  0.61381888  0.59572309     0.16700
H1766       H  0.12455791  0.60941586  0.65465843     0.12600
H1767       H  0.10567430  0.80002538  0.65271328     0.15500
H1768       H  0.12676436  0.80484996  0.59367767     0.15300
C1769       C  0.10331735  0.22421184  0.60386780    -0.17600
C1770       C  0.10507482  0.18386911  0.60290259    -0.19800
C1771       C  0.11882036  0.16428893  0.61469954     0.20900
C1772       C  0.13099509  0.18538264  0.62755731    -0.02700
C1773       C  0.12918295  0.22613955  0.62856596    -0.05800
C1774       C  0.11526187  0.24560375  0.61667271     0.21200
C1775       C  0.14128551  0.24736229  0.64145622     0.19300
C1776       C  0.15515781  0.22770769  0.65312482    -0.17200
C1777       C  0.15691816  0.18725994  0.65215888    -0.19500
C1778       C  0.14485982  0.16577085  0.63947073     0.20800
C1779       C  0.14621526  0.12505462  0.63865235    -0.32500
C1780       C  0.13383826  0.10385261  0.62605646     0.01500
C1781       C  0.12037931  0.12390070  0.61399160    -0.23800
C1782       C  0.11360524  0.28613092  0.61765717    -0.28400
C1783       C  0.12566997  0.30760531  0.63040492     0.07200
C1784       C  0.13940533  0.28787220  0.64233850    -0.27100
H1785       H  0.09259761  0.23867028  0.59462079     0.11900
H1786       H  0.09561775  0.16794810  0.59295509     0.13000
H1787       H  0.16463307  0.24363214  0.66305360     0.12100
H1788       H  0.16765287  0.17278762  0.66138342     0.11300
H1789       H  0.15657097  0.10993254  0.64803548     0.16700
H1790       H  0.11075193  0.10802908  0.60417202     0.12600
H1791       H  0.10308269  0.30095236  0.60832886     0.15500
H1792       H  0.14894897  0.30407894  0.65209784     0.15300
C1793       C  0.16043667  0.51013945  0.01170048    -0.17600
C1794       C  0.16099393  0.50987003  0.99142890    -0.19800
C1795       C  0.14503305  0.52506755  0.98068396     0.20900
C1796       C  0.12822309  0.54025551  0.99049544    -0.02700
C1797       C  0.12764376  0.54046601  0.01097907    -0.05800
C1798       C  0.14389092  0.52554714  0.02159874     0.21200
C1799       C  0.11092740  0.55599303  0.02080440     0.19300
C1800       C  0.09481393  0.57058973  0.01004861    -0.17200
C1801       C  0.09539519  0.57042131  0.98976461    -0.19500
C1802       C  0.11210067  0.55565055  0.97986450     0.20800
C1803       C  0.11304998  0.55644820  0.95954053    -0.32500
C1804       C  0.12989106  0.54192688  0.94960282     0.01500
C1805       C  0.14571009  0.52578831  0.96032918    -0.23800
C1806       C  0.14343182  0.52658693  0.04192270    -0.28400
C1807       C  0.12697653  0.54253032  0.05190886     0.07200
C1808       C  0.11070390  0.55697329  0.04118119    -0.27100
H1809       H  0.17302148  0.49850510  0.01964401     0.11900
H1810       H  0.17400200  0.49804251  0.98415327     0.13000
H1811       H  0.08181587  0.58245431  0.01732527     0.12100
H1812       H  0.08283989  0.58217213  0.98181777     0.11300
H1813       H  0.10065889  0.56853311  0.95146642     0.16700
H1814       H  0.15871495  0.51438483  0.95286790     0.12600
H1815       H  0.15605206  0.51531989  0.04995427     0.15500
H1816       H  0.09789133  0.56911631  0.04866137     0.15300
C1817       C  0.12942139  0.42828077  0.74885574    -0.17600
C1818       C  0.12878811  0.43758812  0.76856079    -0.19800
C1819       C  0.12845862  0.47650335  0.77454946     0.20900
C1820       C  0.12895662  0.50642560  0.76061910    -0.02700
C1821       C  0.12918230  0.49703433  0.74074591    -0.05800
C1822       C  0.12947566  0.45774738  0.73483629     0.21200
C1823       C  0.12894295  0.52694400  0.72680627     0.19300
C1824       C  0.12907799  0.56586716  0.73279539    -0.17200
C1825       C  0.12928980  0.57517857  0.75251301    -0.19500
C1826       C  0.12907831  0.54570392  0.76653897     0.20800
C1827       C  0.12882078  0.55474337  0.78636700    -0.32500
C1828       C  0.12773494  0.52498917  0.80022168     0.01500
C1829       C  0.12756590  0.48601791  0.79423197    -0.23800
C1830       C  0.12960813  0.44866479  0.71502381    -0.28400
C1831       C  0.12876501  0.47837798  0.70116504     0.07200
C1832       C  0.12845718  0.51738026  0.70712133    -0.27100
H1833       H  0.12964468  0.39803372  0.74457724     0.11900
H1834       H  0.12853266  0.41432643  0.77913021     0.13000
H1835       H  0.12900398  0.58912443  0.72221963     0.12100
H1836       H  0.12939156  0.60542630  0.75679298     0.11300
H1837       H  0.12901441  0.58479020  0.79102273     0.16700
H1838       H  0.12709274  0.46303566  0.80496992     0.12600
H1839       H  0.12982870  0.41860996  0.71038007     0.15500
H1840       H  0.12809495  0.54033279  0.69636351     0.15300
C1841       C  0.09722224  0.99987294  0.98754592    -0.17600
C1842       C  0.09706764  0.99903637  0.00781226    -0.19800
C1843       C  0.11236451  0.01710315  0.01837764     0.20900
C1844       C  0.12811350  0.03575757  0.00841052    -0.02700
C1845       C  0.12827257  0.03659518  0.98795866    -0.05800
C1846       C  0.11269138  0.01873694  0.97750142     0.21200
C1847       C  0.14387416  0.05574724  0.97800304     0.19300
C1848       C  0.15933934  0.07325084  0.98855214    -0.17200
C1849       C  0.15918039  0.07242377  0.00881179    -0.19500
C1850       C  0.14354081  0.05412577  0.01886756     0.20800
C1851       C  0.14286781  0.05455897  0.03918021    -0.32500
C1852       C  0.12698222  0.03684226  0.04925076     0.01500
C1853       C  0.11197687  0.01752501  0.03871399    -0.23800
C1854       C  0.11274696  0.02036426  0.95720329    -0.28400
C1855       C  0.12809786  0.03987607  0.94716725     0.07200
C1856       C  0.14365245  0.05737118  0.95769762    -0.27100
H1857       H  0.08515478  0.98598933  0.97972303     0.11900
H1858       H  0.08486887  0.98456714  0.01523180     0.13000
H1859       H  0.17147834  0.08790380  0.98113042     0.12100
H1860       H  0.17118927  0.08650437  0.01662970     0.11300
H1861       H  0.15461350  0.06917027  0.04714753     0.16700
H1862       H  0.09968648  0.00369700  0.04631267     0.12600
H1863       H  0.10065443  0.00686428  0.94923459     0.15500
H1864       H  0.15559952  0.07229790  0.95010095     0.15300
C1865       C  0.15381829  0.77368115  0.84726700    -0.17600
C1866       C  0.15544524  0.81412832  0.84790680    -0.19800
C1867       C  0.14410545  0.83563892  0.86122830     0.20900
C1868       C  0.13107246  0.81614324  0.87410916    -0.02700
C1869       C  0.12944111  0.77537123  0.87347603    -0.05800
C1870       C  0.14082311  0.75410918  0.85994757     0.21200
C1871       C  0.11639243  0.75593634  0.88635574     0.19300
C1872       C  0.10510467  0.77741131  0.89972391    -0.17200
C1873       C  0.10663467  0.81783240  0.90028184    -0.19500
C1874       C  0.11953260  0.83737567  0.88751860     0.20800
C1875       C  0.12083111  0.87785221  0.88775992    -0.32500
C1876       C  0.13347016  0.89763172  0.87473058     0.01500
C1877       C  0.14529977  0.87629573  0.86168508    -0.23800
C1878       C  0.13909750  0.71362303  0.85939181    -0.28400
C1879       C  0.12623679  0.69394502  0.87228607     0.07200
C1880       C  0.11491446  0.71537656  0.88570854    -0.27100
H1881       H  0.16269681  0.75770878  0.83682778     0.11900
H1882       H  0.16550296  0.82859725  0.83791030     0.13000
H1883       H  0.09503933  0.76295357  0.90971606     0.12100
H1884       H  0.09767595  0.83382212  0.91065030     0.11300
H1885       H  0.11169940  0.89398871  0.89794098     0.16700
H1886       H  0.15498188  0.89131322  0.85153387     0.12600
H1887       H  0.14804717  0.69742616  0.84908669     0.15500
H1888       H  0.10504175  0.70051624  0.89574210     0.15300
C1889       C  0.11495803  0.32071766  0.84279292    -0.17600
C1890       C  0.11152187  0.28071664  0.84282314    -0.19800
C1891       C  0.11820651  0.25777226  0.85827607     0.20900
C1892       C  0.12837839  0.27543071  0.87390976    -0.02700
C1893       C  0.13192252  0.31577174  0.87384966    -0.05800
C1894       C  0.12515601  0.33837280  0.85820660     0.21200
C1895       C  0.14210572  0.33349114  0.88947695     0.19300
C1896       C  0.14864113  0.31055223  0.90499876    -0.17200
C1897       C  0.14519134  0.27051569  0.90502809    -0.19500
C1898       C  0.13510759  0.25278680  0.88955063     0.20800
C1899       C  0.13195589  0.21268207  0.88930879    -0.32500
C1900       C  0.12234348  0.19456197  0.87352787     0.01500
C1901       C  0.11523082  0.21743526  0.85819077    -0.23800
C1902       C  0.12828735  0.37841900  0.85842570    -0.28400
C1903       C  0.13783973  0.39657938  0.87418956     0.07200
C1904       C  0.14511656  0.37389054  0.88950273    -0.27100
H1905       H  0.10960081  0.33787850  0.83072031     0.11900
H1906       H  0.10369011  0.26771739  0.83073209     0.13000
H1907       H  0.15638936  0.32357770  0.91713668     0.12100
H1908       H  0.15045845  0.25338371  0.91714543     0.11300
H1909       H  0.13752716  0.19546775  0.90127665     0.16700
H1910       H  0.10789233  0.20380671  0.84597410     0.12600
H1911       H  0.12269731  0.39574339  0.84649207     0.15500
H1912       H  0.15224150  0.38778596  0.90176930     0.15300
C1913       C  0.09024849  0.01010541  0.75739655    -0.17600
C1914       C  0.09021822  0.99639015  0.73829110    -0.19800
C1915       C  0.10812406  0.98508204  0.72927175     0.20900
C1916       C  0.12621825  0.98718405  0.73967421    -0.02700
C1917       C  0.12620499  0.00051621  0.75901856    -0.05800
C1918       C  0.10815689  0.01238775  0.76788958     0.21200
C1919       C  0.14427769  0.00207923  0.76944034     0.19300
C1920       C  0.16217791  0.99061363  0.76048494    -0.17200
C1921       C  0.16225427  0.97820782  0.74120550    -0.19500
C1922       C  0.14439000  0.97660560  0.73065404     0.20800
C1923       C  0.14445519  0.96567961  0.71108950    -0.32500
C1924       C  0.12654234  0.96428525  0.70056665     0.01500
C1925       C  0.10836219  0.97290205  0.70985749    -0.23800
C1926       C  0.10833363  0.02578468  0.78715630    -0.28400
C1927       C  0.12626499  0.02643475  0.79773825     0.07200
C1928       C  0.14414799  0.01473696  0.78870499    -0.27100
H1929       H  0.07624631  0.01889405  0.76397317     0.11900
H1930       H  0.07621148  0.99507373  0.73048744     0.13000
H1931       H  0.17616210  0.99156004  0.76834865     0.12100
H1932       H  0.17630180  0.97004702  0.73451970     0.11300
H1933       H  0.15846783  0.95901261  0.70390419     0.16700
H1934       H  0.09457456  0.97231717  0.70165168     0.12600
H1935       H  0.09447181  0.03424623  0.79412868     0.15500
H1936       H  0.15802532  0.01521605  0.79677676     0.15300
C1937       C  0.90891156  0.97406103  0.00735685    -0.17600
C1938       C  0.90905436  0.97143581  0.98709005    -0.19800
C1939       C  0.89147073  0.96248892  0.97695026     0.20900
C1940       C  0.87362331  0.95568693  0.98737069    -0.02700
C1941       C  0.87356823  0.95761039  0.00779653    -0.05800
C1942       C  0.89124274  0.96727764  0.01785363     0.21200
C1943       C  0.85577736  0.94997143  0.01813239     0.19300
C1944       C  0.83821655  0.94087917  0.00806485    -0.17200
C1945       C  0.83817314  0.93978262  0.98784195    -0.19500
C1946       C  0.85574840  0.94728185  0.97738337     0.20800
C1947       C  0.85567834  0.94697111  0.95710240    -0.32500
C1948       C  0.87332624  0.95382929  0.94663240     0.01500
C1949       C  0.89128566  0.96081009  0.95659064    -0.23800
C1950       C  0.89090183  0.96969112  0.03820061    -0.28400
C1951       C  0.87325258  0.96133160  0.04850236     0.07200
C1952       C  0.85581750  0.95145372  0.03837115    -0.27100
H1953       H  0.92263623  0.98131051  0.01482227     0.11900
H1954       H  0.92287964  0.97679375  0.97933274     0.13000
H1955       H  0.82446279  0.93491355  0.01583598     0.12100
H1956       H  0.82437136  0.93310080  0.98037125     0.11300
H1957       H  0.84188200  0.94122962  0.94939854     0.16700
H1958       H  0.90489212  0.96627933  0.94847569     0.12600
H1959       H  0.90441828  0.97696290  0.04602729     0.15500
H1960       H  0.84217023  0.94522091  0.04629843     0.15300
C1961       C  0.00291607  0.06448357  0.84804399    -0.17600
C1962       C  0.98256942  0.05508557  0.84769319    -0.19800
C1963       C  0.97503893  0.02517003  0.85946204     0.20900
C1964       C  0.98805745  0.00473591  0.87180294    -0.02700
C1965       C  0.00854342  0.01438124  0.87223837    -0.05800
C1966       C  0.01606479  0.04423588  0.86019679     0.21200
C1967       C  0.02150962  0.99389862  0.88459328     0.19300
C1968       C  0.01398140  0.96418287  0.89646793    -0.17200
C1969       C  0.99371210  0.95455135  0.89598348    -0.19500
C1970       C  0.98064032  0.97454390  0.88368294     0.20800
C1971       C  0.96028291  0.96502160  0.88313345    -0.32500
C1972       C  0.94716359  0.98546481  0.87098921     0.01500
C1973       C  0.95470534  0.01546077  0.85914479    -0.23800
C1974       C  0.03661596  0.05280833  0.86032917    -0.28400
C1975       C  0.04968810  0.03190493  0.87237297     0.07200
C1976       C  0.04186849  0.00293899  0.88467575    -0.27100
H1977       H  0.00838736  0.08752635  0.83871975     0.11900
H1978       H  0.97273826  0.07109477  0.83816860     0.13000
H1979       H  0.02379993  0.94821939  0.90602719     0.12100
H1980       H  0.98825928  0.93137055  0.90523500     0.11300
H1981       H  0.95461523  0.94203917  0.89239814     0.16700
H1982       H  0.94474603  0.03145546  0.84972368     0.12600
H1983       H  0.04245404  0.07524037  0.85083598     0.15500
H1984       H  0.05170132  0.98664140  0.89409494     0.15300
C1985       C  0.83367121  0.44020245  0.01085844    -0.17600
C1986       C  0.83364022  0.44093726  0.99057323    -0.19800
C1987       C  0.85167559  0.44345149  0.98021029     0.20900
C1988       C  0.86994333  0.44465134  0.99039545    -0.02700
C1989       C  0.86994725  0.44488375  0.01085139    -0.05800
C1990       C  0.85171747  0.44261932  0.02112514     0.21200
C1991       C  0.88817592  0.44802803  0.02100258     0.19300
C1992       C  0.90623846  0.44933320  0.01065342    -0.17200
C1993       C  0.90626265  0.44817885  0.99040048    -0.19500
C1994       C  0.88820922  0.44630029  0.98015499     0.20800
C1995       C  0.88810261  0.44679284  0.95985430    -0.32500
C1996       C  0.86997560  0.44710800  0.94965262     0.01500
C1997       C  0.85179750  0.44531662  0.95987726    -0.23800
C1998       C  0.85185929  0.44349102  0.04146395    -0.28400
C1999       C  0.86990985  0.44813370  0.05159288     0.07200
C2000       C  0.88800234  0.45028380  0.04130209    -0.27100
H2001       H  0.81955113  0.43840229  0.01852382     0.11900
H2002       H  0.81949583  0.43971908  0.98298999     0.13000
H2003       H  0.92035866  0.45144888  0.01822690     0.12100
H2004       H  0.92040054  0.44941767  0.98273618     0.11300
H2005       H  0.90212107  0.44834011  0.95197163     0.16700
H2006       H  0.83780456  0.44514471  0.95198951     0.12600
H2007       H  0.83789094  0.44184243  0.04942084     0.15500
H2008       H  0.90193937  0.45332207  0.04913869     0.15300
C2009       C  0.83966861  0.73145115  0.85877536    -0.17600
C2010       C  0.83721953  0.69166181  0.86218341    -0.19800
C2011       C  0.85187348  0.67060494  0.87219457     0.20900
C2012       C  0.86912479  0.69000822  0.87894904    -0.02700
C2013       C  0.87151779  0.73023725  0.87564457    -0.05800
C2014       C  0.85675166  0.75098306  0.86543603     0.21200
C2015       C  0.88868125  0.74964656  0.88254462     0.19300
C2016       C  0.90342386  0.72855522  0.89241957    -0.17200
C2017       C  0.90123956  0.68859430  0.89536736    -0.19500
C2018       C  0.88418231  0.66909131  0.88867429     0.20800
C2019       C  0.88226136  0.62881807  0.89089269    -0.32500
C2020       C  0.86539118  0.60919953  0.88377639     0.01500
C2021       C  0.84998146  0.63028547  0.87490334    -0.23800
C2022       C  0.85914415  0.79101269  0.86237020    -0.28400
C2023       C  0.87586780  0.81091440  0.86979700     0.07200
C2024       C  0.89067157  0.78986928  0.87971354    -0.27100
H2025       H  0.82815756  0.74698623  0.85095482     0.11900
H2026       H  0.82394618  0.67727553  0.85680752     0.13000
H2027       H  0.91669102  0.74293521  0.89779232     0.12100
H2028       H  0.91295091  0.67289453  0.90283187     0.11300
H2029       H  0.89427826  0.61235117  0.89746974     0.16700
H2030       H  0.83722067  0.61497771  0.86899242     0.12600
H2031       H  0.84753469  0.80695940  0.85488047     0.15500
H2032       H  0.90359364  0.80487951  0.88545889     0.15300
C2033       C  0.88369597  0.23062587  0.90503832    -0.17600
C2034       C  0.87973973  0.19088566  0.90682063    -0.19800
C2035       C  0.87090763  0.17032214  0.89152403     0.20900
C2036       C  0.86605351  0.19010045  0.87421602    -0.02700
C2037       C  0.86993741  0.23030594  0.87246405    -0.05800
C2038       C  0.87878366  0.25059988  0.88796332     0.21200
C2039       C  0.86488904  0.25017896  0.85525529     0.19300
C2040       C  0.85641295  0.22945715  0.83980598    -0.17200
C2041       C  0.85291074  0.18950405  0.84139952    -0.19500
C2042       C  0.85761762  0.16960505  0.85854880     0.20800
C2043       C  0.85468714  0.12936385  0.86007127    -0.32500
C2044       C  0.85978420  0.10942076  0.87712900     0.01500
C2045       C  0.86752461  0.13011455  0.89294401    -0.23800
C2046       C  0.88214424  0.29068033  0.88633951    -0.28400
C2047       C  0.87634086  0.31118764  0.86959553     0.07200
C2048       C  0.86802046  0.29049659  0.85396383    -0.27100
H2049       H  0.89049523  0.24580167  0.91707657     0.11900
H2050       H  0.88370789  0.17617667  0.92014659     0.13000
H2051       H  0.85249034  0.24415570  0.82646688     0.12100
H2052       H  0.84650916  0.17415185  0.82920336     0.11300
H2053       H  0.84923212  0.11316233  0.84769585     0.16700
H2054       H  0.87209107  0.11451843  0.90584259     0.12600
H2055       H  0.88849100  0.30616739  0.89851904     0.15500
H2056       H  0.86355347  0.30587084  0.84097219     0.15300
C2057       C  0.98433997  0.56237968  0.86855979    -0.17600
C2058       C  0.00470471  0.57132867  0.86877702    -0.19800
C2059       C  0.01864121  0.54412596  0.87547110     0.20900
C2060       C  0.01193502  0.50760258  0.88223198    -0.02700
C2061       C  0.99129880  0.49874021  0.88224075    -0.05800
C2062       C  0.97753441  0.52617358  0.87517451     0.21200
C2063       C  0.98447970  0.46233832  0.88904054     0.19300
C2064       C  0.99846663  0.43527751  0.89591452    -0.17200
C2065       C  0.01896414  0.44381608  0.89562714    -0.19500
C2066       C  0.02585893  0.47975052  0.88865366     0.20800
C2067       C  0.04640395  0.48816976  0.88765804    -0.32500
C2068       C  0.05310677  0.52446543  0.88087482     0.01500
C2069       C  0.03917222  0.55254073  0.87515807    -0.23800
C2070       C  0.95719185  0.51692355  0.87459943    -0.28400
C2071       C  0.95011685  0.48059562  0.88106111     0.07200
C2072       C  0.96387687  0.45356315  0.88855823    -0.27100
H2073       H  0.97389614  0.58375557  0.86311264     0.11900
H2074       H  0.00958004  0.59940995  0.86348907     0.13000
H2075       H  0.99357708  0.40725498  0.90126469     0.12100
H2076       H  0.02944643  0.42218358  0.90074127     0.11300
H2077       H  0.05722445  0.46653843  0.89211714     0.16700
H2078       H  0.04438459  0.58035362  0.86977828     0.12600
H2079       H  0.94681504  0.53830529  0.86901607     0.15500
H2080       H  0.95863254  0.42558361  0.89366062     0.15300
C2081       C  0.89956909  0.49521414  0.49332274    -0.17600
C2082       C  0.89979495  0.49719371  0.51360645    -0.19800
C2083       C  0.88650341  0.52172577  0.52353091     0.20900
C2084       C  0.87263482  0.54403944  0.51290559    -0.02700
C2085       C  0.87253591  0.54229429  0.49245136    -0.05800
C2086       C  0.88613056  0.51791679  0.48258725     0.21200
C2087       C  0.85896263  0.56530058  0.48188894     0.19300
C2088       C  0.84534037  0.58912145  0.49179083    -0.17200
C2089       C  0.84531426  0.59060273  0.51202788    -0.19500
C2090       C  0.85897893  0.56843533  0.52270174     0.20800
C2091       C  0.85932221  0.57048194  0.54298732    -0.32500
C2092       C  0.87334275  0.54902344  0.55355475     0.01500
C2093       C  0.88686820  0.52460088  0.54385338    -0.23800
C2094       C  0.88618758  0.51706650  0.46219090    -0.28400
C2095       C  0.87300021  0.54073516  0.45155546     0.07200
C2096       C  0.85933817  0.56445962  0.46159957    -0.27100
H2097       H  0.91005956  0.47622401  0.48602253     0.11900
H2098       H  0.91045078  0.47967994  0.52152949     0.13000
H2099       H  0.83476492  0.60682213  0.48386750     0.12100
H2100       H  0.83472047  0.60937995  0.51932954     0.11300
H2101       H  0.84886799  0.58912338  0.55059287     0.16700
H2102       H  0.89754581  0.50779528  0.55214380     0.12600
H2103       H  0.89669654  0.49851668  0.45462438     0.15500
H2104       H  0.84891238  0.58240779  0.45361347     0.15300
C2105       C  0.02111291  0.57042302  0.62013216    -0.17600
C2106       C  0.00081759  0.58029591  0.61978220    -0.19800
C2107       C  0.98610920  0.55123526  0.61982636     0.20900
C2108       C  0.99197516  0.51181752  0.61972443    -0.02700
C2109       C  0.01244689  0.50186196  0.61969687    -0.05800
C2110       C  0.02705327  0.53132049  0.62027914     0.21200
C2111       C  0.01827447  0.46241650  0.61950121     0.19300
C2112       C  0.00358241  0.43338564  0.61923682    -0.17200
C2113       C  0.98331815  0.44322884  0.61963407    -0.19500
C2114       C  0.97739321  0.48227995  0.62006858     0.20800
C2115       C  0.95714755  0.49224931  0.62122515    -0.32500
C2116       C  0.95117194  0.53134049  0.62161524     0.01500
C2117       C  0.96567476  0.56077778  0.62043148    -0.23800
C2118       C  0.04730881  0.52110636  0.62135361    -0.28400
C2119       C  0.05321218  0.48185310  0.62139731     0.07200
C2120       C  0.03865416  0.45267975  0.62001392    -0.27100
H2121       H  0.03217348  0.59339789  0.62045155     0.11900
H2122       H  0.99662332  0.61066574  0.61983167     0.13000
H2123       H  0.00776841  0.40301424  0.61906784     0.12100
H2124       H  0.97225871  0.42024345  0.61977493     0.11300
H2125       H  0.94595371  0.46949531  0.62185624     0.16700
H2126       H  0.96108764  0.59094725  0.62073898     0.12600
H2127       H  0.05854464  0.54374370  0.62217303     0.15500
H2128       H  0.04316114  0.42245703  0.62008660     0.15300
C2129       C  0.84085901  0.51955972  0.76300006    -0.17600
C2130       C  0.84122072  0.53119177  0.74358227    -0.19800
C2131       C  0.85942473  0.53448905  0.73357326     0.20900
C2132       C  0.87751194  0.52700479  0.74337231    -0.02700
C2133       C  0.87717218  0.51609816  0.76310121    -0.05800
C2134       C  0.85872149  0.51155853  0.77282100     0.21200
C2135       C  0.89526233  0.50916180  0.77300253     0.19300
C2136       C  0.91349051  0.51319702  0.76308612    -0.17200
C2137       C  0.91379842  0.52294982  0.74338758    -0.19500
C2138       C  0.89589038  0.52955366  0.73335451     0.20800
C2139       C  0.89597804  0.53776086  0.71340612    -0.32500
C2140       C  0.87797001  0.54470614  0.70353215     0.01500
C2141       C  0.85982166  0.54404231  0.71381215    -0.23800
C2142       C  0.85845043  0.49890027  0.79214544    -0.28400
C2143       C  0.87639132  0.49204542  0.80205818     0.07200
C2144       C  0.89475051  0.49793365  0.79256387    -0.27100
H2145       H  0.82659457  0.51658541  0.77030675     0.11900
H2146       H  0.82720551  0.53689228  0.73627423     0.13000
H2147       H  0.92751726  0.50810214  0.77048278     0.12100
H2148       H  0.92804018  0.52507266  0.73596466     0.11300
H2149       H  0.91000084  0.53847943  0.70551064     0.16700
H2150       H  0.84590548  0.54906350  0.70618177     0.12600
H2151       H  0.84431794  0.49519942  0.79964388     0.15500
H2152       H  0.90859581  0.49298662  0.80032435     0.15300
C2153       C  0.89541281  0.99334639  0.50784305    -0.17600
C2154       C  0.89502894  0.99186082  0.48758635    -0.19800
C2155       C  0.88453708  0.01994088  0.47695784     0.20900
C2156       C  0.87426272  0.04974018  0.48685119    -0.02700
C2157       C  0.87460391  0.05117856  0.50729952    -0.05800
C2158       C  0.88527552  0.02288706  0.51783297     0.21200
C2159       C  0.86427699  0.08091591  0.51718035     0.19300
C2160       C  0.85375714  0.10896877  0.50656669    -0.17200
C2161       C  0.85347306  0.10761499  0.48631460    -0.19500
C2162       C  0.86367511  0.07814880  0.47632846     0.20800
C2163       C  0.86351487  0.07668245  0.45601623    -0.32500
C2164       C  0.87377956  0.04714083  0.44598896     0.01500
C2165       C  0.88420910  0.01880182  0.45662683    -0.23800
C2166       C  0.88558078  0.02456511  0.53815211    -0.28400
C2167       C  0.87521588  0.05399609  0.54813410     0.07200
C2168       C  0.86461340  0.08207727  0.53748873    -0.27100
H2169       H  0.90364925  0.97134937  0.51570584     0.11900
H2170       H  0.90298531  0.96876648  0.48022251     0.13000
H2171       H  0.84575245  0.13199768  0.51393517     0.12100
H2172       H  0.84526417  0.12965381  0.47845183     0.11300
H2173       H  0.85541057  0.09869879  0.44802266     0.16700
H2174       H  0.89217803  0.99591824  0.44909853     0.12600
H2175       H  0.89376117  0.00271965  0.54618916     0.15500
H2176       H  0.85662846  0.10497194  0.54499797     0.15300
C2177       C  0.84323022  0.82265309  0.64115389    -0.17600
C2178       C  0.84531514  0.78252945  0.64319162    -0.19800
C2179       C  0.86196985  0.76341526  0.63532257     0.20900
C2180       C  0.87664329  0.78474436  0.62521510    -0.02700
C2181       C  0.87458183  0.82526596  0.62324257    -0.05800
C2182       C  0.85780353  0.84428735  0.63128363     0.21200
C2183       C  0.88934751  0.84672871  0.61333871     0.19300
C2184       C  0.90595679  0.82752667  0.60538026    -0.17200
C2185       C  0.90789788  0.78726198  0.60716401    -0.19500
C2186       C  0.89332099  0.76559487  0.61703001     0.20800
C2187       C  0.89497788  0.72511358  0.61867700    -0.32500
C2188       C  0.88033608  0.70379059  0.62869885     0.01500
C2189       C  0.86403512  0.72323918  0.63717672    -0.23800
C2190       C  0.85604249  0.88467245  0.62961455    -0.28400
C2191       C  0.87092017  0.90641492  0.62015258     0.07200
C2192       C  0.88740291  0.88708684  0.61182097    -0.27100
H2193       H  0.83026718  0.83679881  0.64739823     0.11900
H2194       H  0.83388248  0.76642895  0.65090631     0.13000
H2195       H  0.91745190  0.84365759  0.59777052     0.12100
H2196       H  0.92080252  0.77307720  0.60083270     0.11300
H2197       H  0.90754447  0.71020954  0.61210238     0.16700
H2198       H  0.85252620  0.70690902  0.64468679     0.12600
H2199       H  0.84332797  0.89923138  0.63611334     0.15500
H2200       H  0.89899278  0.90349784  0.60448974     0.15300
C2201       C  0.88661420  0.32779727  0.65910573    -0.17600
C2202       C  0.88917238  0.28760285  0.65819864    -0.19800
C2203       C  0.88120546  0.26635422  0.64271299     0.20900
C2204       C  0.87037137  0.28582278  0.62808372    -0.02700
C2205       C  0.86770767  0.32638571  0.62904161    -0.05800
C2206       C  0.87603112  0.34737676  0.64455947     0.21200
C2207       C  0.85703967  0.34598085  0.61433524     0.19300
C2208       C  0.84888423  0.32464169  0.59894904    -0.17200
C2209       C  0.85149518  0.28439082  0.59801628    -0.19500
C2210       C  0.86230851  0.26483286  0.61244602     0.20800
C2211       C  0.86509067  0.22461127  0.61156737    -0.32500
C2212       C  0.87569774  0.20479997  0.62620035     0.01500
C2213       C  0.88378613  0.22598215  0.64169148    -0.23800
C2214       C  0.87418045  0.38774356  0.64499227    -0.28400
C2215       C  0.86432876  0.40774984  0.63002392     0.07200
C2216       C  0.85528757  0.38662689  0.61498092    -0.27100
H2217       H  0.89309136  0.34364607  0.67111302     0.11900
H2218       H  0.89747115  0.27316617  0.66955858     0.13000
H2219       H  0.84066242  0.33911250  0.58754357     0.12100
H2220       H  0.84513489  0.26856766  0.58594336     0.11300
H2221       H  0.85862255  0.20866790  0.59958240     0.16700
H2222       H  0.89185247  0.21105330  0.65306156     0.12600
H2223       H  0.88104855  0.40377868  0.65674419     0.15500
H2224       H  0.84777450  0.40185420  0.60335116     0.15300
C2225       C  0.99200877  0.03401541  0.59341772    -0.17600
C2226       C  0.01183160  0.02132855  0.59319260    -0.19800
C2227       C  0.02120183  0.00977533  0.61041170     0.20900
C2228       C  0.01067047  0.01184474  0.62812538    -0.02700
C2229       C  0.99074746  0.02540341  0.62840547    -0.05800
C2230       C  0.98130894  0.03579253  0.61089640     0.21200
C2231       C  0.98012233  0.02759997  0.64608979     0.19300
C2232       C  0.98967079  0.01665470  0.66334818    -0.17200
C2233       C  0.00937055  0.00281331  0.66304021    -0.19500
C2234       C  0.01994957  0.99992759  0.64548835     0.20800
C2235       C  0.03963645  0.98553892  0.64495732    -0.32500
C2236       C  0.05026392  0.98388750  0.62734284     0.01500
C2237       C  0.04092635  0.99620944  0.61018313    -0.23800
C2238       C  0.96112469  0.04641600  0.61104333    -0.28400
C2239       C  0.95023676  0.04739734  0.62845724     0.07200
C2240       C  0.95994638  0.03922701  0.64604515    -0.27100
H2241       H  0.98497161  0.04205867  0.57987654     0.11900
H2242       H  0.01975614  0.02004363  0.57949344     0.13000
H2243       H  0.98178168  0.01815775  0.67705960     0.12100
H2244       H  0.01629536  0.99412137  0.67653573     0.11300
H2245       H  0.04689626  0.97679002  0.65828785     0.16700
H2246       H  0.04906500  0.99518843  0.59658053     0.12600
H2247       H  0.95364373  0.05279488  0.59748738     0.15500
H2248       H  0.95149219  0.03954488  0.65947167     0.15300
C2249       C  0.84382133  0.95425369  0.75183148    -0.17600
C2250       C  0.84346870  0.96409738  0.73213919    -0.19800
C2251       C  0.85566805  0.99406260  0.72496625     0.20900
C2252       C  0.86814329  0.01462138  0.73780273    -0.02700
C2253       C  0.86849369  0.00469623  0.75766038    -0.05800
C2254       C  0.85638351  0.97416850  0.76470233     0.21200
C2255       C  0.88108006  0.02516714  0.77041649     0.19300
C2256       C  0.89303165  0.05553099  0.76334723    -0.17200
C2257       C  0.89272920  0.06526289  0.74369207    -0.19500
C2258       C  0.88043924  0.04486737  0.73078742     0.20800
C2259       C  0.88042498  0.05395223  0.71097129    -0.32500
C2260       C  0.86827682  0.03325564  0.69796710     0.01500
C2261       C  0.85578210  0.00352993  0.70516308    -0.23800
C2262       C  0.85710743  0.96409689  0.78444727    -0.28400
C2263       C  0.86974047  0.98431535  0.79722514     0.07200
C2264       C  0.88159540  0.01491887  0.79002776    -0.27100
H2265       H  0.83434554  0.93088329  0.75697023     0.11900
H2266       H  0.83374879  0.94808651  0.72249230     0.13000
H2267       H  0.90271862  0.07160180  0.77300279     0.12100
H2268       H  0.90221281  0.08862716  0.73856242     0.11300
H2269       H  0.89007084  0.07691269  0.70565969     0.16700
H2270       H  0.84633341  0.98733551  0.69533149     0.12600
H2271       H  0.84775798  0.94077257  0.78986409     0.15500
H2272       H  0.89133069  0.03087979  0.79969390     0.15300
C2273       C  0.33577417  0.78403945  0.50705264    -0.17600
C2274       C  0.33550287  0.78409911  0.48677844    -0.19800
C2275       C  0.35328302  0.78892446  0.47621387     0.20900
C2276       C  0.37154322  0.79341308  0.48618663    -0.02700
C2277       C  0.37187377  0.79256907  0.50661060    -0.05800
C2278       C  0.35386698  0.78825290  0.51708320     0.21200
C2279       C  0.39021653  0.79620760  0.51654088     0.19300
C2280       C  0.40796572  0.80137542  0.50600180    -0.17200
C2281       C  0.40758717  0.80292627  0.48577471    -0.19500
C2282       C  0.38948322  0.79890468  0.47576785     0.20800
C2283       C  0.38902542  0.80043490  0.45551977    -0.32500
C2284       C  0.37093686  0.79587136  0.44545877     0.01500
C2285       C  0.35313179  0.78968709  0.45587782    -0.23800
C2286       C  0.35430435  0.78830218  0.53739217    -0.28400
C2287       C  0.37256487  0.79123638  0.54727985     0.07200
C2288       C  0.39046718  0.79483733  0.53683329    -0.27100
H2289       H  0.32183601  0.78057834  0.51489148     0.11900
H2290       H  0.32136027  0.78067692  0.47936097     0.13000
H2291       H  0.42213464  0.80441492  0.51341000     0.12100
H2292       H  0.42147690  0.80716104  0.47794614     0.11300
H2293       H  0.40283335  0.80485039  0.44755806     0.16700
H2294       H  0.33913278  0.78632343  0.44818413     0.12600
H2295       H  0.34050221  0.78549270  0.54554555     0.15500
H2296       H  0.40449615  0.79758990  0.54454311     0.15300
C2297       C  0.27228761  0.92759913  0.61755487    -0.17600
C2298       C  0.25338712  0.94457859  0.61919576    -0.19800
C2299       C  0.23684267  0.92220464  0.62480477     0.20900
C2300       C  0.23947742  0.88239641  0.62913712    -0.02700
C2301       C  0.25862240  0.86538784  0.62776034    -0.05800
C2302       C  0.27499726  0.88805492  0.62169408     0.21200
C2303       C  0.26131996  0.82565317  0.63219653     0.19300
C2304       C  0.24479037  0.80338359  0.63799476    -0.17200
C2305       C  0.22573608  0.82004628  0.63898880    -0.19500
C2306       C  0.22291907  0.85939204  0.63443604     0.20800
C2307       C  0.20378110  0.87592581  0.63458718    -0.32500
C2308       C  0.20104132  0.91532471  0.62998907     0.01500
C2309       C  0.21763504  0.93860984  0.62560128    -0.23800
C2310       C  0.29381183  0.87081861  0.61978374    -0.28400
C2311       C  0.29673087  0.83126777  0.62417055     0.07200
C2312       C  0.28043847  0.80890737  0.63059515    -0.27100
H2313       H  0.28479129  0.94538529  0.61295553     0.11900
H2314       H  0.25165577  0.97508946  0.61578870     0.13000
H2315       H  0.24654836  0.77292148  0.64150018     0.12100
H2316       H  0.21315794  0.80206185  0.64318117     0.11300
H2317       H  0.19090013  0.85804211  0.63801427     0.16700
H2318       H  0.21544641  0.96888328  0.62187853     0.12600
H2319       H  0.30632506  0.88854493  0.61511482     0.15500
H2320       H  0.28257770  0.77850191  0.63405899     0.15300
C2321       C  0.38920911  0.36351832  0.49490072    -0.17600
C2322       C  0.38929228  0.36292586  0.51517421    -0.19800
C2323       C  0.38255416  0.33008927  0.52530192     0.20900
C2324       C  0.37562578  0.29751032  0.51488628    -0.02700
C2325       C  0.37549393  0.29814540  0.49441352    -0.05800
C2326       C  0.38234638  0.33132102  0.48439000     0.21200
C2327       C  0.36835781  0.26574678  0.48399900     0.19300
C2328       C  0.36178969  0.23275229  0.49412436    -0.17200
C2329       C  0.36195997  0.23209334  0.51440439    -0.19500
C2330       C  0.36867908  0.26442982  0.52491072     0.20800
C2331       C  0.36842781  0.26438660  0.54524937    -0.32500
C2332       C  0.37526190  0.29679736  0.55573924     0.01500
C2333       C  0.38248153  0.32939813  0.54564718    -0.23800
C2334       C  0.38204651  0.33188175  0.46404867    -0.28400
C2335       C  0.37455219  0.30007214  0.45358165     0.07200
C2336       C  0.36776639  0.26705774  0.46366536    -0.27100
H2337       H  0.39444846  0.38926153  0.48743494     0.11900
H2338       H  0.39459375  0.38822001  0.52293879     0.13000
H2339       H  0.35638880  0.20753576  0.48635933     0.12100
H2340       H  0.35668880  0.20637787  0.52187683     0.11300
H2341       H  0.36298839  0.23902809  0.55292986     0.16700
H2342       H  0.38767015  0.35453142  0.55362995     0.12600
H2343       H  0.38721604  0.35743627  0.45635799     0.15500
H2344       H  0.36215417  0.24229017  0.45566384     0.15300
C2345       C  0.34185096  0.52109194  0.64753269    -0.17600
C2346       C  0.33929631  0.56081105  0.64415401    -0.19800
C2347       C  0.35381166  0.58193785  0.63391367     0.20900
C2348       C  0.37110120  0.56281340  0.62703867    -0.02700
C2349       C  0.37370178  0.52276768  0.63047807    -0.05800
C2350       C  0.35895466  0.50182072  0.64070339     0.21200
C2351       C  0.39089762  0.50360611  0.62341970     0.19300
C2352       C  0.40554170  0.52480212  0.61339642    -0.17200
C2353       C  0.40301514  0.56451875  0.61007675    -0.19500
C2354       C  0.38579901  0.58366365  0.61672243     0.20800
C2355       C  0.38323428  0.62345900  0.61353626    -0.32500
C2356       C  0.36633309  0.64309157  0.62082483     0.01500
C2357       C  0.35152930  0.62195352  0.63075826    -0.23800
C2358       C  0.36124352  0.46174294  0.64336656    -0.28400
C2359       C  0.37783935  0.44210430  0.63551341     0.07200
C2360       C  0.39283856  0.46339674  0.62595615    -0.27100
H2361       H  0.33036226  0.50537021  0.65536146     0.11900
H2362       H  0.32595619  0.57501051  0.64955823     0.13000
H2363       H  0.41885977  0.51058646  0.60795261     0.12100
H2364       H  0.41450640  0.58024765  0.60225066     0.11300
H2365       H  0.39484632  0.63938529  0.60596946     0.16700
H2366       H  0.33850670  0.63677699  0.63648212     0.12600
H2367       H  0.34954821  0.44554318  0.65066453     0.15500
H2368       H  0.40571329  0.44849538  0.61996674     0.15300
C2369       C  0.35467095  0.06259077  0.59421883    -0.17600
C2370       C  0.35733451  0.02241130  0.59307885    -0.19800
C2371       C  0.36676974  0.00219119  0.60815823     0.20900
C2372       C  0.37361562  0.02250658  0.62455841    -0.02700
C2373       C  0.37095179  0.06303923  0.62569689    -0.05800
C2374       C  0.36143258  0.08320995  0.61044553     0.21200
C2375       C  0.37794153  0.08337592  0.64203063     0.19300
C2376       C  0.38730019  0.06315657  0.65715563    -0.17200
C2377       C  0.38979221  0.02293194  0.65609370    -0.19500
C2378       C  0.38304066  0.00233785  0.63984529     0.20800
C2379       C  0.38522918  0.96188029  0.63877446    -0.32500
C2380       C  0.37804217  0.94133868  0.62262835     0.01500
C2381       C  0.36914094  0.96189972  0.60725235    -0.23800
C2382       C  0.35923293  0.12369841  0.61150344    -0.28400
C2383       C  0.36676165  0.14417267  0.62747160     0.07200
C2384       C  0.37579550  0.12369329  0.64279767    -0.27100
H2385       H  0.34739530  0.07755062  0.58237597     0.11900
H2386       H  0.35195553  0.00711405  0.58040310     0.13000
H2387       H  0.39274440  0.07848016  0.66980060     0.12100
H2388       H  0.39700041  0.00794873  0.66796621     0.11300
H2389       H  0.39198242  0.94634780  0.65073198     0.16700
H2390       H  0.36350730  0.94644078  0.59472322     0.12600
H2391       H  0.35244011  0.13936555  0.59960568     0.15500
H2392       H  0.38154157  0.13930354  0.65524071     0.15300
C2393       C  0.24069124  0.38151160  0.66298933    -0.17600
C2394       C  0.25882664  0.36143335  0.66320021    -0.19800
C2395       C  0.26883275  0.35298793  0.64581877     0.20900
C2396       C  0.26048523  0.36483562  0.62801525    -0.02700
C2397       C  0.24228383  0.38571021  0.62782437    -0.05800
C2398       C  0.23233115  0.39379751  0.64540754     0.21200
C2399       C  0.23398945  0.39822211  0.61008692     0.19300
C2400       C  0.24402237  0.38954764  0.59270572    -0.17200
C2401       C  0.26202370  0.36867353  0.59288632    -0.19500
C2402       C  0.27041013  0.35616815  0.61045701     0.20800
C2403       C  0.28877907  0.33614315  0.61086358    -0.32500
C2404       C  0.29752622  0.32570408  0.62865109     0.01500
C2405       C  0.28729015  0.33378492  0.64600628    -0.23800
C2406       C  0.21395455  0.41322549  0.64513195    -0.28400
C2407       C  0.20526649  0.42504686  0.62755505     0.07200
C2408       C  0.21559567  0.41824051  0.61006655    -0.27100
H2409       H  0.23319531  0.38746251  0.67660745     0.11900
H2410       H  0.26504671  0.35253428  0.67698349     0.13000
H2411       H  0.23789404  0.39876155  0.57893565     0.12100
H2412       H  0.26944814  0.36247835  0.57926380     0.11300
H2413       H  0.29677882  0.33061937  0.59746402     0.16700
H2414       H  0.29400693  0.32595717  0.65974956     0.12600
H2415       H  0.20608410  0.41829501  0.65865740     0.15500
H2416       H  0.20884843  0.42668499  0.59643754     0.15300
C2417       C  0.34207391  0.75954509  0.00694022    -0.17600
C2418       C  0.34270835  0.75971404  0.98666305    -0.19800
C2419       C  0.35572351  0.73481969  0.97663353     0.20900
C2420       C  0.36809783  0.70926803  0.98713910    -0.02700
C2421       C  0.36741406  0.70902189  0.00761456    -0.05800
C2422       C  0.35442681  0.73446133  0.01755813     0.21200
C2423       C  0.37985737  0.68359478  0.01811241     0.19300
C2424       C  0.39270936  0.65838718  0.00807848    -0.17200
C2425       C  0.39342286  0.65870080  0.98781148    -0.19500
C2426       C  0.38125942  0.68414520  0.97721274     0.20800
C2427       C  0.38206999  0.68494521  0.95688207    -0.32500
C2428       C  0.36979732  0.71037692  0.94625592     0.01500
C2429       C  0.35661249  0.73515073  0.95630086    -0.23800
C2430       C  0.35419243  0.73471623  0.03792433    -0.28400
C2431       C  0.36681970  0.70991863  0.04855151     0.07200
C2432       C  0.37944208  0.68412500  0.03845247    -0.27100
H2433       H  0.33198350  0.77922449  0.01432534     0.11900
H2434       H  0.33308243  0.77947035  0.97882557     0.13000
H2435       H  0.40232889  0.63861220  0.01591241     0.12100
H2436       H  0.40356468  0.63912289  0.98042550     0.11300
H2437       H  0.39222050  0.66559914  0.94934549     0.16700
H2438       H  0.34708889  0.75487931  0.94831832     0.12600
H2439       H  0.34433564  0.75459578  0.04547937     0.15500
H2440       H  0.38917361  0.66473412  0.04640330     0.15300
C2441       C  0.24265672  0.62258215  0.90574248    -0.17600
C2442       C  0.26042741  0.64406919  0.90525539    -0.19800
C2443       C  0.26934013  0.65407028  0.88750477     0.20900
C2444       C  0.26010422  0.64264164  0.87004184    -0.02700
C2445       C  0.24201180  0.62138844  0.87053271    -0.05800
C2446       C  0.23333164  0.61100019  0.88848220     0.21200
C2447       C  0.23259752  0.61065096  0.85307070     0.19300
C2448       C  0.24145018  0.62078841  0.83530037    -0.17200
C2449       C  0.25960641  0.64098122  0.83481723    -0.19500
C2450       C  0.26908949  0.65192311  0.85209708     0.20800
C2451       C  0.28766453  0.67094183  0.85176956    -0.32500
C2452       C  0.29719117  0.68161110  0.86913480     0.01500
C2453       C  0.28764193  0.67412297  0.88692243    -0.23800
C2454       C  0.21526064  0.59004377  0.88885693    -0.28400
C2455       C  0.20543112  0.58045011  0.87151497     0.07200
C2456       C  0.21431704  0.59063228  0.85368770    -0.27100
H2457       H  0.23616299  0.61511938  0.91964821     0.11900
H2458       H  0.26733408  0.65249912  0.91880375     0.13000
H2459       H  0.23438851  0.61286400  0.82175211     0.12100
H2460       H  0.26626068  0.64796277  0.82091392     0.11300
H2461       H  0.29499386  0.67656827  0.83801670     0.16700
H2462       H  0.29506705  0.68171962  0.90034749     0.12600
H2463       H  0.20830142  0.58306380  0.90262706     0.15500
H2464       H  0.20674805  0.58360359  0.84026016     0.15300
C2465       C  0.34211639  0.71516978  0.73301302    -0.17600
C2466       C  0.34378865  0.70522012  0.75259822    -0.19800
C2467       C  0.35812806  0.72324070  0.76436323     0.20900
C2468       C  0.37073853  0.75196423  0.75636401    -0.02700
C2469       C  0.36905566  0.76200377  0.73659232    -0.05800
C2470       C  0.35478390  0.74327535  0.72484581     0.21200
C2471       C  0.38185386  0.79033643  0.72853629     0.19300
C2472       C  0.39594636  0.80888351  0.74037468    -0.17200
C2473       C  0.39755127  0.79907055  0.75998015    -0.19500
C2474       C  0.38510683  0.77049534  0.76807268     0.20800
C2475       C  0.38671647  0.76031714  0.78769098    -0.32500
C2476       C  0.37415196  0.73177874  0.79584582     0.01500
C2477       C  0.35997496  0.71322202  0.78400039    -0.23800
C2478       C  0.35375799  0.75223061  0.70504176    -0.28400
C2479       C  0.36697455  0.77940495  0.69672290     0.07200
C2480       C  0.38068571  0.79894015  0.70869887    -0.27100
H2481       H  0.33104860  0.70058087  0.72420492     0.11900
H2482       H  0.33391380  0.68326235  0.75852417     0.13000
H2483       H  0.40585886  0.83075549  0.73443177     0.12100
H2484       H  0.40860923  0.81368761  0.76879045     0.11300
H2485       H  0.39763532  0.77498279  0.79665355     0.16700
H2486       H  0.35008394  0.69150847  0.79013562     0.12600
H2487       H  0.34306229  0.73711017  0.69601548     0.15500
H2488       H  0.39086783  0.82006887  0.70250580     0.15300
C2489       C  0.38643743  0.27281602  0.01378456    -0.17600
C2490       C  0.38644825  0.27231440  0.99356121    -0.19800
C2491       C  0.37623642  0.24307517  0.98349943     0.20900
C2492       C  0.36582914  0.21409159  0.99384639    -0.02700
C2493       C  0.36582099  0.21459534  0.01425672    -0.05800
C2494       C  0.37622007  0.24407653  0.02424247     0.21200
C2495       C  0.35548541  0.18557860  0.02465213     0.19300
C2496       C  0.34526988  0.15631937  0.01456320    -0.17200
C2497       C  0.34528235  0.15581720  0.99429740    -0.19500
C2498       C  0.35551181  0.18456619  0.98381314     0.20800
C2499       C  0.35571940  0.18423121  0.96349383    -0.32500
C2500       C  0.36621275  0.21293517  0.95311630     0.01500
C2501       C  0.37636197  0.24228043  0.96326146    -0.23800
C2502       C  0.37629767  0.24427768  0.04451098    -0.28400
C2503       C  0.36605966  0.21548527  0.05498372     0.07200
C2504       C  0.35562143  0.18627631  0.04494401    -0.27100
H2505       H  0.39446675  0.29564467  0.02125317     0.11900
H2506       H  0.39449357  0.29476556  0.98577913     0.13000
H2507       H  0.33728831  0.13379177  0.02235050     0.12100
H2508       H  0.33731610  0.13291172  0.98682336     0.11300
H2509       H  0.34790307  0.16141379  0.95579141     0.16700
H2510       H  0.38445859  0.26458983  0.95540963     0.12600
H2511       H  0.38432361  0.26694131  0.05212718     0.15500
H2512       H  0.34774565  0.16383021  0.05290594     0.15300
C2513       C  0.38643043  0.98320234  0.84240881    -0.17600
C2514       C  0.38409738  0.94291545  0.84157660    -0.19800
C2515       C  0.37578764  0.92261992  0.85729578     0.20900
C2516       C  0.36952657  0.94298795  0.87392844    -0.02700
C2517       C  0.37208051  0.98354081  0.87484564    -0.05800
C2518       C  0.38063225  0.00375786  0.85903421     0.21200
C2519       C  0.36612815  0.00379106  0.89161020     0.19300
C2520       C  0.35748415  0.98361971  0.90719011    -0.17200
C2521       C  0.35490255  0.94342512  0.90625770    -0.19500
C2522       C  0.36095625  0.92279324  0.88974666     0.20800
C2523       C  0.35902823  0.88226349  0.88894461    -0.32500
C2524       C  0.36592914  0.86176632  0.87268583     0.01500
C2525       C  0.37401158  0.88220548  0.85682484    -0.23800
C2526       C  0.38302977  0.04417404  0.86006187    -0.28400
C2527       C  0.37693908  0.06450246  0.87669882     0.07200
C2528       C  0.36871065  0.04395633  0.89246463    -0.27100
H2529       H  0.39289298  0.99823572  0.83010748     0.11900
H2530       H  0.38890263  0.92758752  0.82867288     0.13000
H2531       H  0.35275368  0.99893380  0.92012066     0.12100
H2532       H  0.34831642  0.92843804  0.91851630     0.11300
H2533       H  0.35297269  0.86657824  0.90125346     0.16700
H2534       H  0.37926085  0.86650011  0.84418410     0.12600
H2535       H  0.38910186  0.05983640  0.84775996     0.15500
H2536       H  0.36387932  0.05933630  0.90535202     0.15300
C2537       C  0.39095024  0.48303387  0.90370342    -0.17600
C2538       C  0.38789719  0.44309075  0.90576954    -0.19800
C2539       C  0.37639996  0.42263648  0.89219332     0.20900
C2540       C  0.36780023  0.44254817  0.87644210    -0.02700
C2541       C  0.37098128  0.48279996  0.87429726    -0.05800
C2542       C  0.38259654  0.50313831  0.88800242     0.21200
C2543       C  0.36251004  0.50265678  0.85845867     0.19300
C2544       C  0.35095221  0.48221008  0.84493303    -0.17200
C2545       C  0.34782109  0.44231256  0.84704473    -0.19500
C2546       C  0.35619984  0.42219902  0.86271340     0.20800
C2547       C  0.35362363  0.38196227  0.86460881    -0.32500
C2548       C  0.36276434  0.36174074  0.87988902     0.01500
C2549       C  0.37377883  0.38246060  0.89384016    -0.23800
C2550       C  0.38539089  0.54329498  0.88592587    -0.28400
C2551       C  0.37664577  0.56346423  0.87035616     0.07200
C2552       C  0.36546205  0.54272154  0.85655380    -0.27100
H2553       H  0.39986673  0.49819364  0.91438103     0.11900
H2554       H  0.39461205  0.42815931  0.91793548     0.13000
H2555       H  0.34431705  0.49709596  0.83271242     0.12100
H2556       H  0.33892630  0.42714255  0.83635239     0.11300
H2557       H  0.34524827  0.36620335  0.85372191     0.16700
H2558       H  0.38082860  0.36714887  0.90571652     0.12600
H2559       H  0.39393881  0.55894697  0.89671815     0.15500
H2560       H  0.35858440  0.55789056  0.84453972     0.15300
C2561       C  0.27281400  0.07619627  0.85946455    -0.17600
C2562       C  0.25381505  0.05934974  0.85810135    -0.19800
C2563       C  0.23660249  0.08171887  0.86133781     0.20900
C2564       C  0.23861915  0.12182653  0.86529910    -0.02700
C2565       C  0.25775360  0.13895363  0.86634620    -0.05800
C2566       C  0.27492119  0.11580167  0.86384501     0.21200
C2567       C  0.25970358  0.17901474  0.87045119     0.19300
C2568       C  0.24251277  0.20157334  0.87327780    -0.17200
C2569       C  0.22358771  0.18449726  0.87254395    -0.19500
C2570       C  0.22154180  0.14466038  0.86880058     0.20800
C2571       C  0.20273055  0.12709066  0.86913244    -0.32500
C2572       C  0.20057692  0.08695061  0.86596643     0.01500
C2573       C  0.21748699  0.06455386  0.86139434    -0.23800
C2574       C  0.29385984  0.13252790  0.86622870    -0.28400
C2575       C  0.29586254  0.17224848  0.87057121     0.07200
C2576       C  0.27879445  0.19557661  0.87217834    -0.27100
H2577       H  0.28588589  0.05810781  0.85734658     0.11900
H2578       H  0.25260392  0.02862982  0.85497431     0.13000
H2579       H  0.24371869  0.23227972  0.87644133     0.12100
H2580       H  0.21053858  0.20237266  0.87519104     0.11300
H2581       H  0.18967291  0.14469856  0.87224799     0.16700
H2582       H  0.21587513  0.03367523  0.85883373     0.12600
H2583       H  0.30711888  0.11462880  0.86480054     0.15500
H2584       H  0.28038480  0.22613649  0.87558499     0.15300
C2585       C  0.39977520  0.20221733  0.76028342    -0.17600
C2586       C  0.40020190  0.21097120  0.74050294    -0.19800
C2587       C  0.38545884  0.23483734  0.73234114     0.20900
C2588       C  0.36992065  0.24943882  0.74407121    -0.02700
C2589       C  0.36943548  0.24044626  0.76397563    -0.05800
C2590       C  0.38456055  0.21709239  0.77217286     0.21200
C2591       C  0.35400281  0.25541311  0.77571853     0.19300
C2592       C  0.33900645  0.27852070  0.76747624    -0.17200
C2593       C  0.33951666  0.28751717  0.74775263    -0.19500
C2594       C  0.35501376  0.27348341  0.73598572     0.20800
C2595       C  0.35593266  0.28331212  0.71631493    -0.32500
C2596       C  0.37147338  0.26914789  0.70460027     0.01500
C2597       C  0.38608156  0.24463970  0.71268593    -0.23800
C2598       C  0.38440219  0.20968690  0.79216177    -0.28400
C2599       C  0.36933601  0.22546988  0.80402178     0.07200
C2600       C  0.35401682  0.24770971  0.79558814    -0.27100
H2601       H  0.41145192  0.18413967  0.76631389     0.11900
H2602       H  0.41218300  0.19942302  0.73162989     0.13000
H2603       H  0.32701472  0.29005800  0.77634037     0.12100
H2604       H  0.32790042  0.30576637  0.74174350     0.11300
H2605       H  0.34447945  0.30171414  0.71010818     0.16700
H2606       H  0.39808029  0.23340647  0.70372055     0.12600
H2607       H  0.39620454  0.19234742  0.79850752     0.15500
H2608       H  0.34222382  0.25976069  0.80454275     0.15300
C2609       C  0.62514380  0.64603708  0.50818883    -0.17600
C2610       C  0.62554119  0.64456399  0.48799409    -0.19800
C2611       C  0.62521149  0.67887033  0.47709955     0.20900
C2612       C  0.62425641  0.71512996  0.48659766    -0.02700
C2613       C  0.62343094  0.71658441  0.50702204    -0.05800
C2614       C  0.62413744  0.68182271  0.51779610     0.21200
C2615       C  0.62212104  0.75267739  0.51665281     0.19300
C2616       C  0.62175122  0.78701854  0.50566593    -0.17200
C2617       C  0.62295258  0.78560919  0.48537906    -0.19500
C2618       C  0.62429513  0.74980975  0.47570720     0.20800
C2619       C  0.62573172  0.74789619  0.45538483    -0.32500
C2620       C  0.62647400  0.71169553  0.44594458     0.01500
C2621       C  0.62597279  0.67743490  0.45686762    -0.23800
C2622       C  0.62406556  0.68329744  0.53801967    -0.28400
C2623       C  0.62287971  0.71892578  0.54778941     0.07200
C2624       C  0.62153758  0.75361485  0.53706215    -0.27100
H2625       H  0.62564676  0.61914429  0.51630950     0.11900
H2626       H  0.62630911  0.61655577  0.48088914     0.13000
H2627       H  0.62076284  0.81499654  0.51277053     0.12100
H2628       H  0.62284943  0.81252010  0.47725642     0.11300
H2629       H  0.62590836  0.77437979  0.44690027     0.16700
H2630       H  0.62662843  0.64957299  0.44957505     0.12600
H2631       H  0.62489870  0.65651684  0.54623767     0.15500
H2632       H  0.62072382  0.78120224  0.54457554     0.15300
C2633       C  0.76792557  0.66794633  0.65355027    -0.17600
C2634       C  0.74891063  0.68462554  0.65212967    -0.19800
C2635       C  0.73582087  0.67352343  0.63727091     0.20900
C2636       C  0.74204652  0.64539496  0.62364319    -0.02700
C2637       C  0.76124805  0.62846261  0.62510186    -0.05800
C2638       C  0.77419940  0.63976239  0.64014857     0.21200
C2639       C  0.76744728  0.60020400  0.61152572     0.19300
C2640       C  0.75441726  0.58933227  0.59657875    -0.17200
C2641       C  0.73539309  0.60599587  0.59516596    -0.19500
C2642       C  0.72904585  0.63394794  0.60865941     0.20800
C2643       C  0.70982922  0.65019839  0.60755880    -0.32500
C2644       C  0.70329394  0.67783339  0.62127176     0.01500
C2645       C  0.71654543  0.68961348  0.63596522    -0.23800
C2646       C  0.79323264  0.62287331  0.64151230    -0.28400
C2647       C  0.79964612  0.59470007  0.62801551     0.07200
C2648       C  0.78656802  0.58349926  0.61307731    -0.27100
H2649       H  0.77771181  0.67702156  0.66516838     0.11900
H2650       H  0.74441022  0.70616303  0.66273274     0.13000
H2651       H  0.75891767  0.56778696  0.58598093     0.12100
H2652       H  0.72560376  0.59689439  0.58355621     0.11300
H2653       H  0.69983926  0.64077198  0.59616483     0.16700
H2654       H  0.71171650  0.71067005  0.64667958     0.12600
H2655       H  0.80313589  0.63205682  0.65302703     0.15500
H2656       H  0.79135586  0.56218211  0.60247581     0.15300
C2657       C  0.48259607  0.68674339  0.62735383    -0.17600
C2658       C  0.50318670  0.67943701  0.62759732    -0.19800
C2659       C  0.51688719  0.71014992  0.62915721     0.20900
C2660       C  0.50970183  0.74853166  0.63102304    -0.02700
C2661       C  0.48891462  0.75581772  0.63121365    -0.05800
C2662       C  0.47532724  0.72485202  0.62893512     0.21200
C2663       C  0.48176020  0.79419518  0.63322065     0.19300
C2664       C  0.49543163  0.82481622  0.63515633    -0.17200
C2665       C  0.51600597  0.81769800  0.63454321    -0.19500
C2666       C  0.52328015  0.77976018  0.63227393     0.20800
C2667       C  0.54387619  0.77259263  0.63091951    -0.32500
C2668       C  0.55115704  0.73452968  0.62892656     0.01500
C2669       C  0.53761426  0.70332331  0.62849057    -0.23800
C2670       C  0.45476543  0.73268186  0.62784056    -0.28400
C2671       C  0.44758025  0.77094752  0.62949483     0.07200
C2672       C  0.46110656  0.80140541  0.63272480    -0.27100
H2673       H  0.47235515  0.66260108  0.62574044     0.11900
H2674       H  0.50840623  0.64980156  0.62619249     0.13000
H2675       H  0.49020955  0.85441011  0.63674594     0.12100
H2676       H  0.52624728  0.84195470  0.63568067     0.11300
H2677       H  0.55431585  0.79664965  0.63151731     0.16700
H2678       H  0.54320314  0.67395198  0.62693996     0.12600
H2679       H  0.44431749  0.70903663  0.62562717     0.15500
H2680       H  0.45559803  0.83088976  0.63400165     0.15300
C2681       C  0.65909291  0.16944634  0.50840323    -0.17600
C2682       C  0.65848523  0.16758482  0.48818196    -0.19800
C2683       C  0.64400184  0.18842559  0.47784599     0.20900
C2684       C  0.63005063  0.21156484  0.48795568    -0.02700
C2685       C  0.63066439  0.21344042  0.50835954    -0.05800
C2686       C  0.64521221  0.19213786  0.51861747     0.21200
C2687       C  0.61665118  0.23639931  0.51848220     0.19300
C2688       C  0.60220117  0.25734793  0.50813553    -0.17200
C2689       C  0.60160617  0.25552311  0.48790414    -0.19500
C2690       C  0.61545918  0.23274104  0.47769572     0.20800
C2691       C  0.61500595  0.23082659  0.45741836    -0.32500
C2692       C  0.62889439  0.20786871  0.44723576     0.01500
C2693       C  0.64327473  0.18659422  0.45758316    -0.23800
C2694       C  0.64548262  0.19350022  0.53891021    -0.28400
C2695       C  0.63140068  0.21588847  0.54913737     0.07200
C2696       C  0.61717212  0.23762154  0.53877467    -0.27100
H2697       H  0.67037313  0.15296653  0.51606857     0.11900
H2698       H  0.66932964  0.14976746  0.48062109     0.13000
H2699       H  0.59131251  0.27506135  0.51570008     0.12100
H2700       H  0.59029542  0.27192125  0.48023674     0.11300
H2701       H  0.60379201  0.24717384  0.44957436     0.16700
H2702       H  0.65406822  0.16889953  0.44986343     0.12600
H2703       H  0.65655298  0.17676796  0.54674203     0.15500
H2704       H  0.60621763  0.25492882  0.54649994     0.15300
C2705       C  0.62598619  0.98570131  0.58848462    -0.17600
C2706       C  0.62935201  0.94570080  0.58785058    -0.19800
C2707       C  0.63267022  0.92482765  0.60499410     0.20900
C2708       C  0.63274842  0.94442818  0.62295982    -0.02700
C2709       C  0.62888402  0.98463802  0.62363718    -0.05800
C2710       C  0.62562710  0.00533576  0.60629175     0.21200
C2711       C  0.62835157  0.00412362  0.64163895     0.19300
C2712       C  0.63193855  0.98326830  0.65875000    -0.17200
C2713       C  0.63599386  0.94344988  0.65806284    -0.19500
C2714       C  0.63634697  0.92374453  0.64026842     0.20800
C2715       C  0.63948165  0.88350592  0.63951998    -0.32500
C2716       C  0.63828621  0.86370556  0.62178775     0.01500
C2717       C  0.63522438  0.88450886  0.60456318    -0.23800
C2718       C  0.62252070  0.04546155  0.60701423    -0.28400
C2719       C  0.62237212  0.06519295  0.62483991     0.07200
C2720       C  0.62477895  0.04427034  0.64214641    -0.27100
H2721       H  0.62356309  0.00126242  0.57504798     0.11900
H2722       H  0.62929211  0.93106089  0.57395588     0.13000
H2723       H  0.63169084  0.99779316  0.67267101     0.12100
H2724       H  0.63863984  0.92797282  0.67148010     0.11300
H2725       H  0.64148144  0.86723613  0.65282720     0.16700
H2726       H  0.63419462  0.86904197  0.59091353     0.12600
H2727       H  0.62071277  0.06160899  0.59363973     0.15500
H2728       H  0.62501035  0.05955155  0.65587590     0.15300
C2729       C  0.63866987  0.44575582  0.65803567    -0.17600
C2730       C  0.63533646  0.48588117  0.65854574    -0.19800
C2731       C  0.62944947  0.50584800  0.64176402     0.20900
C2732       C  0.62680492  0.48510696  0.62431286    -0.02700
C2733       C  0.62993426  0.44461319  0.62385477    -0.05800
C2734       C  0.63602101  0.42484114  0.64076934     0.21200
C2735       C  0.62688818  0.42392556  0.60646761     0.19300
C2736       C  0.62103334  0.44378962  0.58967867    -0.17200
C2737       C  0.61834374  0.48397898  0.59003333    -0.19500
C2738       C  0.62121648  0.50486393  0.60724361     0.20800
C2739       C  0.61899036  0.54525896  0.60757465    -0.32500
C2740       C  0.62180866  0.56614753  0.62481764     0.01500
C2741       C  0.62660962  0.54626510  0.64197478    -0.23800
C2742       C  0.63895629  0.38445217  0.64016439    -0.28400
C2743       C  0.63531879  0.36366962  0.62299334     0.07200
C2744       C  0.62943613  0.38363887  0.60621363    -0.27100
H2745       H  0.64324366  0.43105396  0.67117318     0.11900
H2746       H  0.63750580  0.50135115  0.67204457     0.13000
H2747       H  0.61861562  0.42824655  0.57623971     0.12100
H2748       H  0.61401270  0.49874604  0.57683056     0.11300
H2749       H  0.61532880  0.56063793  0.59433434     0.16700
H2750       H  0.62909854  0.56247701  0.65521327     0.12600
H2751       H  0.64316153  0.36899295  0.65321521     0.15500
H2752       H  0.62658102  0.36762545  0.59297642     0.15300
C2753       C  0.75597578  0.20639174  0.62170272    -0.17600
C2754       C  0.77488589  0.18938996  0.62034749    -0.19800
C2755       C  0.77746604  0.14973554  0.62429259     0.20900
C2756       C  0.76100829  0.12708725  0.63015099    -0.02700
C2757       C  0.74185712  0.14411942  0.63123701    -0.05800
C2758       C  0.73930898  0.18392167  0.62683088     0.21200
C2759       C  0.72518746  0.12106151  0.63612417     0.19300
C2760       C  0.72792504  0.08176771  0.64083091    -0.17200
C2761       C  0.74699003  0.06507745  0.64013526    -0.19500
C2762       C  0.76360121  0.08726828  0.63447011     0.20800
C2763       C  0.78266138  0.07029047  0.63269508    -0.32500
C2764       C  0.79895801  0.09251486  0.62615075     0.01500
C2765       C  0.79619614  0.13228774  0.62220025    -0.23800
C2766       C  0.72006495  0.20016035  0.62692350    -0.28400
C2767       C  0.70338755  0.17669970  0.63066199     0.07200
C2768       C  0.70602775  0.13742829  0.63556902    -0.27100
H2769       H  0.75431606  0.23692608  0.61831706     0.11900
H2770       H  0.78747650  0.20718426  0.61597621     0.13000
H2771       H  0.71526398  0.06378293  0.64478290     0.12100
H2772       H  0.74867108  0.03459386  0.64362068     0.11300
H2773       H  0.78471390  0.03977712  0.63595372     0.16700
H2774       H  0.80875610  0.14996620  0.61759002     0.12600
H2775       H  0.71794289  0.23037796  0.62305022     0.15500
H2776       H  0.69306355  0.11947213  0.63858036     0.15300
C2777       C  0.48683528  0.20499691  0.65145363    -0.17600
C2778       C  0.50714818  0.19581286  0.65009504    -0.19800
C2779       C  0.51982783  0.21744266  0.63799262     0.20900
C2780       C  0.51194431  0.24864486  0.62715864    -0.02700
C2781       C  0.49147707  0.25800353  0.62858365    -0.05800
C2782       C  0.47887852  0.23598130  0.64074019     0.21200
C2783       C  0.48361813  0.28924474  0.61775538     0.19300
C2784       C  0.49630791  0.31095062  0.60571393    -0.17200
C2785       C  0.51658298  0.30166818  0.60429008    -0.19500
C2786       C  0.52450532  0.27057953  0.61492180     0.20800
C2787       C  0.54482989  0.26141581  0.61369891    -0.32500
C2788       C  0.55293530  0.23087309  0.62472790     0.01500
C2789       C  0.54027533  0.20875164  0.63671220    -0.23800
C2790       C  0.45848979  0.24495199  0.64174799    -0.28400
C2791       C  0.45041538  0.27552204  0.63065459     0.07200
C2792       C  0.46316800  0.29786768  0.61890644    -0.27100
H2793       H  0.47732818  0.18778422  0.66085139     0.11900
H2794       H  0.51294346  0.17180029  0.65852074     0.13000
H2795       H  0.49052847  0.33502054  0.59731823     0.12100
H2796       H  0.52608468  0.31885029  0.59487404     0.11300
H2797       H  0.55442395  0.27877906  0.60444021     0.16700
H2798       H  0.54636117  0.18517093  0.64525897     0.12600
H2799       H  0.44884344  0.22752521  0.65092344     0.15500
H2800       H  0.45712941  0.32147495  0.61034415     0.15300
C2801       C  0.65373334  0.74618557  0.00921013    -0.17600
C2802       C  0.65369372  0.74637367  0.98892580    -0.19800
C2803       C  0.64085970  0.77122126  0.97870326     0.20900
C2804       C  0.62777025  0.79580159  0.98901013    -0.02700
C2805       C  0.62783901  0.79566803  0.00949220    -0.05800
C2806       C  0.64094651  0.77086983  0.01963514     0.21200
C2807       C  0.61486261  0.82049480  0.01979107     0.19300
C2808       C  0.60182190  0.84491256  0.00957679    -0.17200
C2809       C  0.60172453  0.84498361  0.98930171    -0.19500
C2810       C  0.61470034  0.82069549  0.97887269     0.20800
C2811       C  0.61492554  0.82110020  0.95850684    -0.32500
C2812       C  0.62816045  0.79711040  0.94808322     0.01500
C2813       C  0.64099082  0.77207580  0.95836779    -0.23800
C2814       C  0.64106504  0.77123445  0.03999977    -0.28400
C2815       C  0.62821467  0.79607642  0.05040399     0.07200
C2816       C  0.61514615  0.82055868  0.04011426    -0.27100
H2817       H  0.66383854  0.72685629  0.01674163     0.11900
H2818       H  0.66378816  0.72719064  0.98122683     0.13000
H2819       H  0.59172145  0.86407979  0.01727639     0.12100
H2820       H  0.59156408  0.86421221  0.98177514     0.11300
H2821       H  0.60492332  0.84037010  0.95079708     0.16700
H2822       H  0.65114543  0.75318253  0.95055737     0.12600
H2823       H  0.65113713  0.75212008  0.04771840     0.15500
H2824       H  0.60513403  0.83976241  0.04790890     0.15300
C2825       C  0.75851465  0.88595382  0.90667165    -0.17600
C2826       C  0.74061322  0.86490895  0.90664743    -0.19800
C2827       C  0.73201580  0.85279312  0.88912936     0.20900
C2828       C  0.74172328  0.86140176  0.87146158    -0.02700
C2829       C  0.75986554  0.88231755  0.87149885    -0.05800
C2830       C  0.76821110  0.89500856  0.88918364     0.21200
C2831       C  0.76960347  0.89060920  0.85383101     0.19300
C2832       C  0.76119500  0.87800779  0.83631872    -0.17200
C2833       C  0.74303101  0.85795938  0.83625778    -0.19500
C2834       C  0.73310181  0.84982966  0.85372421     0.20800
C2835       C  0.71437796  0.83156764  0.85373348    -0.32500
C2836       C  0.70432697  0.82409775  0.87125027     0.01500
C2837       C  0.71352338  0.83354399  0.88891772    -0.23800
C2838       C  0.78628748  0.91582899  0.88907071    -0.28400
C2839       C  0.79631043  0.92319991  0.87152298     0.07200
C2840       C  0.78774721  0.91082188  0.85397955    -0.27100
H2841       H  0.76476608  0.89518830  0.92038110     0.11900
H2842       H  0.73334177  0.85857354  0.92033391     0.13000
H2843       H  0.76858178  0.88396866  0.82264772     0.12100
H2844       H  0.73666466  0.84909505  0.82253251     0.11300
H2845       H  0.70731748  0.82419775  0.84009414     0.16700
H2846       H  0.70569127  0.82819204  0.90243079     0.12600
H2847       H  0.79302747  0.92459455  0.90264951     0.15500
H2848       H  0.79547298  0.91623917  0.84041256     0.15300
C2849       C  0.50459657  0.82440282  0.86898957    -0.17600
C2850       C  0.48413268  0.81630753  0.86861927    -0.19800
C2851       C  0.47714430  0.77862614  0.87236730     0.20900
C2852       C  0.49083599  0.74877972  0.87664149    -0.02700
C2853       C  0.51151281  0.75679247  0.87666908    -0.05800
C2854       C  0.51841012  0.79485295  0.87291094     0.21200
C2855       C  0.52527511  0.72666283  0.88025254     0.19300
C2856       C  0.51825453  0.68912044  0.88430512    -0.17200
C2857       C  0.49772751  0.68135271  0.88464965    -0.19500
C2858       C  0.48388780  0.71087368  0.88068249     0.20800
C2859       C  0.46326617  0.70310317  0.88039249    -0.32500
C2860       C  0.44962341  0.73254310  0.87557621     0.01500
C2861       C  0.45670391  0.77023256  0.87171158    -0.23800
C2862       C  0.53899542  0.80256840  0.87293257    -0.28400
C2863       C  0.55271372  0.77244705  0.87599956     0.07200
C2864       C  0.54580609  0.73459026  0.87958159    -0.27100
H2865       H  0.50963183  0.85370619  0.86602599     0.11900
H2866       H  0.47375706  0.83953396  0.86535831     0.13000
H2867       H  0.52865187  0.66573266  0.88718287     0.12100
H2868       H  0.49268316  0.65212193  0.88778698     0.11300
H2869       H  0.45788271  0.67401329  0.88337117     0.16700
H2870       H  0.44623663  0.79321797  0.86824990     0.12600
H2871       H  0.54438722  0.83167364  0.87000085     0.15500
H2872       H  0.55646507  0.71141037  0.88204269     0.15300
C2873       C  0.64871981  0.80609636  0.73206782    -0.17600
C2874       C  0.64796278  0.81467725  0.75187189    -0.19800
C2875       C  0.63720628  0.79077809  0.76465324     0.20900
C2876       C  0.62695176  0.75810318  0.75735412    -0.02700
C2877       C  0.62767996  0.74947879  0.73734603    -0.05800
C2878       C  0.63871067  0.77350598  0.72469015     0.21200
C2879       C  0.61742535  0.71680439  0.73003655     0.19300
C2880       C  0.60658063  0.69302275  0.74280283    -0.17200
C2881       C  0.60593883  0.70146231  0.76263366    -0.19500
C2882       C  0.61608395  0.73388018  0.77004635     0.20800
C2883       C  0.61572620  0.74222450  0.78994939    -0.32500
C2884       C  0.62616345  0.77442556  0.79744592     0.01500
C2885       C  0.63672963  0.79875370  0.78461482    -0.23800
C2886       C  0.63951076  0.76461702  0.70487427    -0.28400
C2887       C  0.62923574  0.73224485  0.69740812     0.07200
C2888       C  0.61816933  0.70851724  0.71010884    -0.27100
H2889       H  0.65719033  0.82493100  0.72251889     0.11900
H2890       H  0.65588778  0.83990211  0.75720632     0.13000
H2891       H  0.59863466  0.66783261  0.73746108     0.12100
H2892       H  0.59753063  0.68253733  0.77219279     0.11300
H2893       H  0.60753264  0.72319838  0.79963893     0.16700
H2894       H  0.64480694  0.82361629  0.79016857     0.12600
H2895       H  0.64791049  0.78334795  0.69520504     0.15500
H2896       H  0.61020878  0.68354983  0.70451146     0.15300
C2897       C  0.60338598  0.34734028  0.00805841    -0.17600
C2898       C  0.60439453  0.34723244  0.98783604    -0.19800
C2899       C  0.61544770  0.31867849  0.97805734     0.20900
C2900       C  0.62539954  0.28961293  0.98868285    -0.02700
C2901       C  0.62410151  0.28932827  0.00910595    -0.05800
C2902       C  0.61322902  0.31864483  0.01881897     0.21200
C2903       C  0.63381695  0.25998457  0.01980314     0.19300
C2904       C  0.64483009  0.23139232  0.00997299    -0.17200
C2905       C  0.64634967  0.23201314  0.98972142    -0.19500
C2906       C  0.63672541  0.26102534  0.97892418     0.20800
C2907       C  0.63818862  0.26202170  0.95857912    -0.32500
C2908       C  0.62813001  0.29082311  0.94792018     0.01500
C2909       C  0.61675146  0.31888281  0.95782725    -0.23800
C2910       C  0.61255908  0.31897000  0.03912065    -0.28400
C2911       C  0.62214091  0.28982181  0.04977719     0.07200
C2912       C  0.63253341  0.26013107  0.04012777    -0.27100
H2913       H  0.59491952  0.36992194  0.01528899     0.11900
H2914       H  0.59665703  0.36970114  0.97983895     0.13000
H2915       H  0.65240989  0.20870848  0.01796414     0.12100
H2916       H  0.65505503  0.20976949  0.98250013     0.11300
H2917       H  0.64687579  0.24013531  0.95105120     0.16700
H2918       H  0.60903864  0.34133452  0.94977646     0.12600
H2919       H  0.60457256  0.34181689  0.04668129     0.15500
H2920       H  0.64005061  0.23786428  0.04848406     0.15300
C2921       C  0.62552445  0.52689006  0.84037999    -0.17600
C2922       C  0.62912338  0.56674102  0.84075588    -0.19800
C2923       C  0.63300977  0.58559181  0.85834149     0.20900
C2924       C  0.63338939  0.56425796  0.87577102    -0.02700
C2925       C  0.62950389  0.52400350  0.87541633    -0.05800
C2926       C  0.62564280  0.50533776  0.85759689     0.21200
C2927       C  0.62946120  0.50248143  0.89281347     0.19300
C2928       C  0.63353237  0.52147683  0.91039303    -0.17200
C2929       C  0.63743260  0.56148751  0.91074087    -0.19500
C2930       C  0.63729520  0.58324973  0.89352174     0.20800
C2931       C  0.64024696  0.62377686  0.89371786    -0.32500
C2932       C  0.63890137  0.64513987  0.87639318     0.01500
C2933       C  0.63581966  0.62568279  0.85879689    -0.23800
C2934       C  0.62225616  0.46531879  0.85719535    -0.28400
C2935       C  0.62240416  0.44352155  0.87435235     0.07200
C2936       C  0.62567760  0.46230847  0.89220406    -0.27100
H2937       H  0.62258037  0.51292934  0.82661179     0.11900
H2938       H  0.62874495  0.58288732  0.82728610     0.13000
H2939       H  0.63367135  0.50539876  0.92388319     0.12100
H2940       H  0.64036135  0.57547039  0.92450544     0.11300
H2941       H  0.64235511  0.63885483  0.90734549     0.16700
H2942       H  0.63480509  0.64217517  0.84544034     0.12600
H2943       H  0.61978445  0.45091616  0.84343475     0.15500
H2944       H  0.62612961  0.44543849  0.90545492     0.15300
C2945       C  0.60773121  0.02624634  0.90028266    -0.17600
C2946       C  0.61091165  0.06624102  0.90206902    -0.19800
C2947       C  0.62268312  0.08617660  0.88845290     0.20900
C2948       C  0.63103570  0.06573027  0.87266733    -0.02700
C2949       C  0.62775416  0.02536694  0.87082811    -0.05800
C2950       C  0.61625633  0.00547093  0.88483953     0.21200
C2951       C  0.63621924  0.00487317  0.85513446     0.19300
C2952       C  0.64738595  0.02506061  0.84112682    -0.17200
C2953       C  0.65051092  0.06508615  0.84286331    -0.19500
C2954       C  0.64258464  0.08563053  0.85866907     0.20800
C2955       C  0.64556824  0.12584860  0.86048038    -0.32500
C2956       C  0.63717973  0.14629349  0.87609815     0.01500
C2957       C  0.62583509  0.12634317  0.89005994    -0.23800
C2958       C  0.61398834  0.96501937  0.88350543    -0.28400
C2959       C  0.62327733  0.94400974  0.86846586     0.07200
C2960       C  0.63388297  0.96442249  0.85402246    -0.27100
H2961       H  0.59877748  0.01148139  0.91111248     0.11900
H2962       H  0.60422565  0.08156381  0.91416452     0.13000
H2963       H  0.65388732  0.00981418  0.82891891     0.12100
H2964       H  0.65923379  0.07994636  0.83188424     0.11300
H2965       H  0.65367263  0.14156800  0.84933931     0.16700
H2966       H  0.61876211  0.14245953  0.90170197     0.12600
H2967       H  0.60566068  0.94976793  0.89464011     0.15500
H2968       H  0.64093635  0.94871676  0.84224591     0.15300
C2969       C  0.76251182  0.37541366  0.90548237    -0.17600
C2970       C  0.74404589  0.35633441  0.90489315    -0.19800
C2971       C  0.73221647  0.35762939  0.88814120     0.20900
C2972       C  0.73893924  0.37907630  0.87193456    -0.02700
C2973       C  0.75774600  0.39789030  0.87242017    -0.05800
C2974       C  0.76960871  0.39584462  0.88926308     0.21200
C2975       C  0.76487853  0.41790375  0.85591511     0.19300
C2976       C  0.75268269  0.42058414  0.83944471    -0.17200
C2977       C  0.73386982  0.40268837  0.83912279    -0.19500
C2978       C  0.72701165  0.38129763  0.85516453     0.20800
C2979       C  0.70847710  0.36204504  0.85471877    -0.32500
C2980       C  0.70172809  0.34001481  0.87072205     0.01500
C2981       C  0.71379359  0.33794573  0.88735884    -0.23800
C2982       C  0.78861497  0.41316988  0.88938812    -0.28400
C2983       C  0.79627027  0.43118762  0.87266868     0.07200
C2984       C  0.78426831  0.43384120  0.85602149    -0.27100
H2985       H  0.77142183  0.37359665  0.91853908     0.11900
H2986       H  0.73906615  0.34032819  0.91753120     0.13000
H2987       H  0.75778368  0.43617932  0.82672071     0.12100
H2988       H  0.72482117  0.40501891  0.82617945     0.11300
H2989       H  0.69927683  0.36425786  0.84186153     0.16700
H2990       H  0.70861492  0.32183672  0.89989982     0.12600
H2991       H  0.79793822  0.41078230  0.90216716     0.15500
H2992       H  0.79014479  0.44781819  0.84313015     0.15300
C2993       C  0.49268630  0.20134686  0.85268053    -0.17600
C2994       C  0.51308613  0.21003038  0.85177698    -0.19800
C2995       C  0.52128384  0.23885798  0.86374288     0.20900
C2996       C  0.50882400  0.25913675  0.87675234    -0.02700
C2997       C  0.48819767  0.25031017  0.87768203    -0.05800
C2998       C  0.48010503  0.22131629  0.86554633     0.21200
C2999       C  0.47569264  0.27054062  0.89067980     0.19300
C3000       C  0.48392240  0.29932716  0.90267374    -0.17200
C3001       C  0.50435881  0.30803713  0.90176234    -0.19500
C3002       C  0.51696401  0.28815073  0.88885595     0.20800
C3003       C  0.53755635  0.29644730  0.88795868    -0.32500
C3004       C  0.55015909  0.27595903  0.87517789     0.01500
C3005       C  0.54176372  0.24741650  0.86301343    -0.23800
C3006       C  0.45956778  0.21304086  0.86633241    -0.28400
C3007       C  0.44688519  0.23337716  0.87905932     0.07200
C3008       C  0.45516636  0.26191477  0.89132603    -0.27100
H3009       H  0.48673233  0.17899534  0.84325713     0.11900
H3010       H  0.52246569  0.19415763  0.84172378     0.13000
H3011       H  0.47454154  0.31516475  0.91273956     0.12100
H3012       H  0.51031641  0.33036718  0.91119489     0.11300
H3013       H  0.54380495  0.31840551  0.89743772     0.16700
H3014       H  0.55121450  0.23140208  0.85306491     0.12600
H3015       H  0.45342804  0.19101556  0.85682314     0.15500
H3016       H  0.44560860  0.27787497  0.90119934     0.15300
C3017       C  0.60181921  0.19977995  0.74359290    -0.17600
C3018       C  0.60136877  0.20833881  0.76340377    -0.19800
C3019       C  0.61354779  0.23778967  0.77101087     0.20900
C3020       C  0.62629171  0.25886309  0.75857605    -0.02700
C3021       C  0.62682132  0.25008319  0.73860995    -0.05800
C3022       C  0.61451115  0.22040715  0.73107092     0.21200
C3023       C  0.63969269  0.27095533  0.72622179     0.19300
C3024       C  0.65182626  0.30048597  0.73380490    -0.17200
C3025       C  0.65126298  0.30924448  0.75357567    -0.19500
C3026       C  0.63857097  0.28860873  0.76608555     0.20800
C3027       C  0.63803871  0.29701820  0.78597400    -0.32500
C3028       C  0.62549941  0.27587762  0.79850368     0.01500
C3029       C  0.61326352  0.24636046  0.79085335    -0.23800
C3030       C  0.61514610  0.21187995  0.71117437    -0.28400
C3031       C  0.62805455  0.23245863  0.69875287     0.07200
C3032       C  0.64024860  0.26198547  0.70645431    -0.27100
H3033       H  0.59226953  0.17691651  0.73807315     0.11900
H3034       H  0.59150076  0.19190208  0.77278342     0.13000
H3035       H  0.66177394  0.31678612  0.72444192     0.12100
H3036       H  0.66080239  0.33212514  0.75909120     0.11300
H3037       H  0.64760185  0.31964855  0.79172144     0.16700
H3038       H  0.60352055  0.22988092  0.80034993     0.12600
H3039       H  0.60564594  0.18918207  0.70539419     0.15500
H3040       H  0.65014597  0.27830704  0.69703914     0.15300
loop_ 
_geom_bond_atom_site_label_1 
_geom_bond_atom_site_label_2 
_geom_bond_distance 
_geom_bond_site_symmetry_2 
_ccdc_geom_bond_type 
Zn1           O5   1.979       .  S
Zn1           O6   2.075       .  S
Zn1          O10   2.069       .  S
Zn1          O17   2.044       .  S
Zn2           O5   1.952       .  S
Zn2           O7   2.028       .  S
Zn2           O9   2.002       .  S
Zn2          O13   2.008       .  S
Zn3           O5   1.935       .  S
Zn3           O8   1.982       .  S
Zn3          O11   1.997       .  S
Zn3          O14   2.002       .  S
Zn4           O5   1.957       .  S
Zn4          O12   2.054       .  S
Zn4          O15   2.026       .  S
Zn4          O16   1.995       .  S
O6           C18   1.282       .  A
O7           C19   1.275       .  A
O8           C20   1.269       .  A
O9           C18   1.272       .  A
O10          C20   1.280       .  A
O11          C19   1.271       .  A
O12          C21   1.277       .  A
O13          C22   1.274       .  A
O14          C21   1.272       .  A
O15          C22   1.274       .  A
O16          C23   1.273       .  A
O17          C23   1.277       .  A
C18        C2980   1.492       .  S
C19        C3028   1.481       .  S
C20        C2956   1.469       .  S
C21        C3004   1.490       .  S
C22        C2935   1.476       .  S
C23        C2908   1.482       .  S
Zn24         O28   1.937       .  S
Zn24         O29   1.973       .  S
Zn24         O33   2.010       .  S
Zn24         O40   1.994       .  S
Zn25         O28   1.977       .  S
Zn25         O30   2.033       .  S
Zn25         O32   2.050       .  S
Zn25         O36   2.012       .  S
Zn26         O28   1.959       .  S
Zn26         O31   2.035       .  S
Zn26         O34   2.008       .  S
Zn26         O37   2.024       .  S
Zn27         O28   1.968       .  S
Zn27         O35   2.032       .  S
Zn27         O38   2.042       .  S
Zn27         O39   2.033       .  S
O29          C41   1.269       .  A
O30          C42   1.276       .  A
O31          C43   1.275       .  A
O32          C41   1.275       .  A
O33          C43   1.272       .  A
O34          C42   1.274       .  A
O35          C44   1.277       .  A
O36          C45   1.274       .  A
O37          C44   1.275       .  A
O38          C45   1.277       .  A
O39          C46   1.275       .  A
O40          C46   1.271       .  A
C41        C2932   1.473       .  S
C42        C2836   1.475       .  S
C43        C2884   1.487       .  S
C44        C2959   1.488       .  S
C45        C2812   1.488       .  S
C46        C2863   1.470       .  S
Zn47         O51   1.960       .  S
Zn47         O52   1.994       .  S
Zn47         O56   2.033       .  S
Zn47         O63   2.041       .  S
Zn48         O51   1.970       .  S
Zn48         O53   2.031       .  S
Zn48         O55   2.033       .  S
Zn48         O59   2.042       .  S
Zn49         O51   1.936       .  S
Zn49         O54   1.991       .  S
Zn49         O57   1.988       .  S
Zn49         O60   2.006       .  S
Zn50         O51   1.931       .  S
Zn50         O58   2.016       .  S
Zn50         O61   1.984       .  S
Zn50         O62   1.993       .  S
O52          C64   1.272       .  A
O53          C65   1.276       .  A
O54          C66   1.271       .  A
O55          C64   1.276       .  A
O56          C66   1.275       .  A
O57          C65   1.272       .  A
O58          C67   1.273       .  A
O59          C68   1.276       .  A
O60          C67   1.272       .  A
O61          C68   1.270       .  A
O62          C69   1.271       .  A
O63          C69   1.276       .  A
C64        C3031   1.482       .  S
C65        C2788   1.480       .  S
C66        C2743   1.474       .  S
C67        C2695   1.480       .  S
C68        C2719   1.473       .  S
C69        C2767   1.469       .  S
Zn70         O74   1.957       .  S
Zn70         O75   2.025       .  S
Zn70         O79   2.032       .  S
Zn70         O86   1.990       .  S
Zn71         O74   1.970       .  S
Zn71         O76   2.037       .  S
Zn71         O78   2.042       .  S
Zn71         O82   2.031       .  S
Zn72         O74   1.940       .  S
Zn72         O77   2.005       .  S
Zn72         O80   2.001       .  S
Zn72         O83   2.016       .  S
Zn73         O74   1.967       .  S
Zn73         O81   2.050       .  S
Zn73         O84   2.010       .  S
Zn73         O85   2.032       .  S
O75          C87   1.275       .  A
O76          C88   1.275       .  A
O77          C89   1.273       .  A
O78          C87   1.276       .  A
O79          C89   1.273       .  A
O80          C88   1.272       .  A
O81          C90   1.278       .  A
O82          C91   1.276       .  A
O83          C90   1.274       .  A
O84          C91   1.273       .  A
O85          C92   1.275       .  A
O86          C92   1.271       .  A
C87        C2668   1.479       .  S
C88        C2740   1.473       .  S
C89        C2623   1.477       .  S
C90        C2644   1.491       .  S
C91        C2887   1.483       .  S
C92        C2716   1.468       .  S
Zn93         O97   1.936       .  S
Zn93         O98   2.010       .  S
Zn93        O102   1.998       .  S
Zn93        O109   1.987       .  S
Zn94         O97   1.968       .  S
Zn94         O99   2.038       .  S
Zn94        O101   2.044       .  S
Zn94        O105   2.023       .  S
Zn95         O97   1.931       .  S
Zn95        O100   2.006       .  S
Zn95        O103   1.959       .  S
Zn95        O106   1.990       .  S
Zn96         O97   1.960       .  S
Zn96        O104   2.043       .  S
Zn96        O107   1.990       .  S
Zn96        O108   2.032       .  S
O98         C110   1.273       .  A
O99         C111   1.276       .  A
O100        C112   1.272       .  A
O101        C110   1.278       .  A
O102        C112   1.272       .  A
O103        C111   1.268       .  A
O104        C113   1.275       .  A
O105        C114   1.275       .  A
O106        C113   1.269       .  A
O107        C114   1.272       .  A
O108        C115   1.276       .  A
O109        C115   1.271       .  A
C110       C3007   1.489       .  S
C111       C2527   1.476       .  S
C112       C2500   1.476       .  S
C113       C2575   1.472       .  S
C114       C2599   1.478       .  S
C115       C2548   1.478       .  S
Zn116       O120   1.954       .  S
Zn116       O121   2.005       .  S
Zn116       O125   2.013       .  S
Zn116       O132   2.032       .  S
Zn117       O120   1.974       .  S
Zn117       O122   2.022       .  S
Zn117       O124   2.050       .  S
Zn117       O128   2.049       .  S
Zn118       O120   1.969       .  S
Zn118       O123   2.019       .  S
Zn118       O126   2.024       .  S
Zn118       O129   2.042       .  S
Zn119       O120   1.937       .  S
Zn119       O127   1.989       .  S
Zn119       O130   1.968       .  S
Zn119       O131   2.004       .  S
O121        C133   1.272       .  A
O122        C134   1.275       .  A
O123        C135   1.275       .  A
O124        C133   1.278       .  A
O125        C135   1.275       .  A
O126        C134   1.275       .  A
O127        C136   1.271       .  A
O128        C137   1.277       .  A
O129        C136   1.276       .  A
O130        C137   1.268       .  A
O131        C138   1.271       .  A
O132        C138   1.275       .  A
C133       C2452   1.481       .  S
C134       C2428   1.486       .  S
C135       C2551   1.482       .  S
C136       C2860   1.478       .  S
C137       C2524   1.474       .  S
C138       C2476   1.485       .  S
Zn139       O143   1.973       .  S
Zn139       O144   2.057       .  S
Zn139       O148   2.015       .  S
Zn139       O155   2.062       .  S
Zn140       O143   1.930       .  S
Zn140       O145   1.977       .  S
Zn140       O147   1.957       .  S
Zn140       O151   1.968       .  S
Zn141       O143   1.963       .  S
Zn141       O146   2.032       .  S
Zn141       O149   2.044       .  S
Zn141       O152   2.023       .  S
Zn142       O143   1.952       .  S
Zn142       O150   2.010       .  S
Zn142       O153   2.025       .  S
Zn142       O154   1.997       .  S
O144        C156   1.278       .  A
O145        C157   1.268       .  A
O146        C158   1.277       .  A
O147        C156   1.267       .  A
O148        C158   1.275       .  A
O149        C157   1.276       .  A
O150        C159   1.274       .  A
O151        C160   1.267       .  A
O152        C159   1.276       .  A
O153        C160   1.274       .  A
O154        C161   1.272       .  A
O155        C161   1.278       .  A
C156       C2383   1.476       .  S
C157       C2791   1.482       .  S
C158       C2332   1.481       .  S
C159       C2359   1.479       .  S
C160       C2596   1.474       .  S
C161       C2404   1.482       .  S
Zn162       O166   1.943       .  S
Zn162       O167   1.988       .  S
Zn162       O171   2.007       .  S
Zn162       O178   2.030       .  S
Zn163       O166   1.972       .  S
Zn163       O168   2.015       .  S
Zn163       O170   2.038       .  S
Zn163       O174   2.055       .  S
Zn164       O166   1.964       .  S
Zn164       O169   2.041       .  S
Zn164       O172   2.022       .  S
Zn164       O175   2.037       .  S
Zn165       O166   1.926       .  S
Zn165       O173   1.982       .  S
Zn165       O176   1.973       .  S
Zn165       O177   1.996       .  S
O167        C179   1.272       .  A
O168        C180   1.274       .  A
O169        C181   1.276       .  A
O170        C179   1.277       .  A
O171        C181   1.272       .  A
O172        C180   1.276       .  A
O173        C182   1.271       .  A
O174        C183   1.277       .  A
O175        C182   1.276       .  A
O176        C183   1.268       .  A
O177        C184   1.270       .  A
O178        C184   1.274       .  A
C179       C2356   1.482       .  S
C180       C2479   1.484       .  S
C181       C2671   1.478       .  S
C182       C2380   1.480       .  S
C183       C2311   1.481       .  S
C184       C2287   1.468       .  S
Zn185       O189   1.969       .  S
Zn185       O190   2.037       .  S
Zn185       O194   2.055       .  S
Zn185       O201   2.050       .  S
Zn186       O189   1.967       .  S
Zn186       O191   2.055       .  S
Zn186       O193   2.013       .  S
Zn186       O197   2.033   1_545  S
Zn187       O189   1.928       .  S
Zn187       O192   1.969       .  S
Zn187       O195   1.976       .  S
Zn187       O198   2.008       .  S
Zn188       O189   1.937       .  S
Zn188       O196   2.021       .  S
Zn188       O199   1.992   1_545  S
Zn188       O200   1.997       .  S
O190        C202   1.277       .  A
O191        C203   1.277       .  A
O192        C204   1.269       .  A
O193        C202   1.273       .  A
O194        C204   1.279       .  A
O195        C203   1.269       .  A
O196        C205   1.273       .  A
O197        C206   1.278       .  A
O198        C205   1.272       .  A
O199        C206   1.272       .  A
O200        C207   1.273       .  A
O201        C207   1.277       .  A
C202       C2260   1.487       .  S
C203       C2764   1.481       .  S
C204       C2212   1.482       .  S
C205       C2167   1.483       .  S
C206       C2191   1.480       .  S
C207       C2239   1.476       .  S
Zn208       O212   1.935       .  S
Zn208       O213   2.021       .  S
Zn208       O217   2.001       .  S
Zn208       O224   1.978       .  S
Zn209       O212   1.944       .  S
Zn209       O214   1.990       .  S
Zn209       O216   2.026       .  S
Zn209       O220   2.001       .  S
Zn210       O212   1.969       .  S
Zn210       O215   2.036       .  S
Zn210       O218   2.025       .  S
Zn210       O221   2.030       .  S
Zn211       O212   1.976       .  S
Zn211       O219   2.017       .  S
Zn211       O222   2.053       .  S
Zn211       O223   2.045       .  S
O213        C225   1.273       .  A
O214        C226   1.273       .  A
O215        C227   1.274       .  A
O216        C225   1.274       .  A
O217        C227   1.272       .  A
O218        C226   1.276       .  A
O219        C228   1.273       .  A
O220        C229   1.272       .  A
O221        C228   1.275       .  A
O222        C229   1.278       .  A
O223        C230   1.277       .  A
O224        C230   1.271       .  A
C225       C2140   1.477       .  S
C226       C2188   1.474       .  S
C227       C2116   1.476       .  S
C228       C2092   1.468       .  S
C229       C2647   1.490       .  S
C230       C2215   1.478       .  S
Zn231       O235   1.978       .  S
Zn231       O236   2.034       .  S
Zn231       O240   2.063       .  S
Zn231       O247   2.022       .  S
Zn232       O235   1.968       .  S
Zn232       O237   2.039       .  S
Zn232       O239   2.034       .  S
Zn232       O243   2.046       .  S
Zn233       O235   1.937       .  S
Zn233       O238   1.982       .  S
Zn233       O241   2.003       .  S
Zn233       O244   1.985       .  S
Zn234       O235   1.971       .  S
Zn234       O242   2.064       .  S
Zn234       O245   2.021       .  S
Zn234       O246   2.015       .  S
O236        C248   1.275       .  A
O237        C249   1.276       .  A
O238        C250   1.269       .  A
O239        C248   1.274       .  A
O240        C250   1.278       .  A
O241        C249   1.271       .  A
O242        C251   1.276       .  A
O243        C252   1.279       .  A
O244        C251   1.269       .  A
O245        C252   1.276       .  A
O246        C253   1.274       .  A
O247        C253   1.275       .  A
C248       C2983   1.479       .  S
C249       C2143   1.472       .  S
C250       C2020   1.472       .  S
C251       C2071   1.489       .  S
C252       C2047   1.489       .  S
C253       C1996   1.474       .  S
Zn254       O258   1.958       .  S
Zn254       O259   2.018       .  S
Zn254       O263   2.039       .  S
Zn254       O270   1.981       .  S
Zn255       O258   1.968       .  S
Zn255       O260   2.030       .  S
Zn255       O262   2.039       .  S
Zn255       O266   2.025       .  S
Zn256       O258   1.933   1_545  S
Zn256       O261   1.986   1_545  S
Zn256       O264   1.988   1_545  S
Zn256       O267   1.977       .  S
Zn257       O258   1.977       .  S
Zn257       O265   2.072   1_565  S
Zn257       O268   2.020       .  S
Zn257       O269   2.050       .  S
O259        C271   1.275       .  A
O260        C272   1.276       .  A
O261        C273   1.270       .  A
O262        C271   1.277       .  A
O263        C273   1.275       .  A
O264        C272   1.270       .  A
O265        C274   1.279       .  A
O266        C275   1.274       .  A
O267        C274   1.268       .  A
O268        C275   1.275       .  A
O269        C276   1.278       .  A
O270        C276   1.270       .  A
C271       C2023   1.486       .  S
C272       C1972   1.480       .  S
C273       C2263   1.483       .  S
C274       C2044   1.472       .  S
C275       C1948   1.473       .  S
C276       C2839   1.477       .  S
Zn277       O281   1.976       .  S
Zn277       O282   2.055       .  S
Zn277       O286   2.058       .  S
Zn277       O293   2.052       .  S
Zn278       O281   1.963       .  S
Zn278       O283   2.053       .  S
Zn278       O285   1.991       .  S
Zn278       O289   2.035   1_545  S
Zn279       O281   1.920       .  S
Zn279       O284   1.962       .  S
Zn279       O287   1.975       .  S
Zn279       O290   2.012       .  S
Zn280       O281   1.925       .  S
Zn280       O288   2.005       .  S
Zn280       O291   1.976   1_545  S
Zn280       O292   1.978       .  S
O282        C294   1.279       .  A
O283        C295   1.276       .  A
O284        C296   1.269       .  A
O285        C294   1.272       .  A
O286        C296   1.280       .  A
O287        C295   1.269       .  A
O288        C297   1.271       .  A
O289        C298   1.277       .  A
O290        C297   1.272       .  A
O291        C298   1.271       .  A
O292        C299   1.270       .  A
O293        C299   1.277       .  A
C294       C1927   1.479       .  S
C295       C2572   1.478       .  S
C296       C1900   1.481       .  S
C297       C1855   1.480       .  S
C298       C1876   1.477       .  S
C299       C1975   1.483       .  S
Zn300       O304   1.930       .  S
Zn300       O305   2.004       .  S
Zn300       O309   1.940       .  S
Zn300       O316   1.995       .  S
Zn301       O304   1.960       .  S
Zn301       O306   2.019       .  S
Zn301       O308   2.047       .  S
Zn301       O312   2.031       .  S
Zn302       O304   1.984       .  S
Zn302       O307   2.071       .  S
Zn302       O310   2.037       .  S
Zn302       O313   2.072       .  S
Zn303       O304   1.952       .  S
Zn303       O311   1.996       .  S
Zn303       O314   1.991       .  S
Zn303       O315   2.018       .  S
O305        C317   1.270       .  A
O306        C318   1.275       .  A
O307        C319   1.280       .  A
O308        C317   1.275       .  A
O309        C319   1.266       .  A
O310        C318   1.277       .  A
O311        C320   1.271       .  A
O312        C321   1.277       .  A
O313        C320   1.280       .  A
O314        C321   1.272       .  A
O315        C322   1.272       .  A
O316        C322   1.270       .  A
C317       C2068   1.475       .  S
C318       C1804   1.487       .  S
C319       C1903   1.476       .  S
C320       C2455   1.484       .  S
C321       C1879   1.480       .  S
C322       C1828   1.470       .  S
Zn323       O327   1.927       .  S
Zn323       O328   1.946       .  S
Zn323       O332   1.982       .  S
Zn323       O339   1.987       .  S
Zn324       O327   1.983       .  S
Zn324       O329   2.065       .  S
Zn324       O331   2.066       .  S
Zn324       O335   2.008       .  S
Zn325       O327   1.949       .  S
Zn325       O330   2.024       .  S
Zn325       O333   1.995       .  S
Zn325       O336   2.003       .  S
Zn326       O327   1.965       .  S
Zn326       O334   2.034       .  S
Zn326       O337   2.013       .  S
Zn326       O338   2.055       .  S
O328        C340   1.265       .  A
O329        C341   1.279       .  A
O330        C342   1.273       .  A
O331        C340   1.278       .  A
O332        C342   1.269       .  A
O333        C341   1.272       .  A
O334        C343   1.277       .  A
O335        C344   1.274       .  A
O336        C343   1.273       .  A
O337        C344   1.274       .  A
O338        C345   1.277       .  A
O339        C345   1.269       .  A
C340       C1756   1.475       .  S
C341       C2407   1.484       .  S
C342       C1831   1.469       .  S
C343       C1783   1.484       .  S
C344       C1732   1.471       .  S
C345       C2119   1.478       .  S
Zn346       O350   1.935       .  S
Zn346       O351   1.967       .  S
Zn346       O355   1.994       .  S
Zn346       O362   2.017       .  S
Zn347       O350   1.975       .  S
Zn347       O352   2.026       .  S
Zn347       O354   2.057       .  S
Zn347       O358   2.050       .  S
Zn348       O350   1.973       .  S
Zn348       O353   2.049       .  S
Zn348       O356   2.011       .  S
Zn348       O359   2.048   1_565  S
Zn349       O350   1.931       .  S
Zn349       O357   1.970   1_565  S
Zn349       O360   1.994       .  S
Zn349       O361   1.997       .  S
O351        C363   1.270       .  A
O352        C364   1.275       .  A
O353        C365   1.276       .  A
O354        C363   1.280       .  A
O355        C365   1.270       .  A
O356        C364   1.274       .  A
O357        C366   1.270       .  A
O358        C367   1.276       .  A
O359        C366   1.277       .  A
O360        C367   1.271       .  A
O361        C368   1.271       .  A
O362        C368   1.273       .  A
C363       C1759   1.479       .  S
C364       C1924   1.473       .  S
C365       C2308   1.472       .  S
C366       C1780   1.482       .  S
C367       C2236   1.481       .  S
C368       C1708   1.480       .  S
Zn369       O373   1.935       .  S
Zn369       O374   2.015       .  S
Zn369       O378   1.998       .  S
Zn369       O385   1.968       .  S
Zn370       O373   1.919       .  S
Zn370       O375   1.951       .  S
Zn370       O377   1.987       .  S
Zn370       O381   1.971       .  S
Zn371       O373   1.973       .  S
Zn371       O376   2.052       .  S
Zn371       O379   2.054       .  S
Zn371       O382   2.031       .  S
Zn372       O373   1.976       .  S
Zn372       O380   2.013       .  S
Zn372       O383   2.082       .  S
Zn372       O384   2.055       .  S
O374        C386   1.273       .  A
O375        C387   1.267       .  A
O376        C388   1.277       .  A
O377        C386   1.269       .  A
O378        C388   1.271       .  A
O379        C387   1.278       .  A
O380        C389   1.275       .  A
O381        C390   1.268       .  A
O382        C389   1.278       .  A
O383        C390   1.280       .  A
O384        C391   1.279       .  A
O385        C391   1.269       .  A
C386       C2503   1.476       .  S
C387       C1588   1.479       .  S
C388       C1663   1.477       .  S
C389       C1687   1.484       .  S
C390       C1636   1.483       .  S
C391       C1615   1.482       .  S
Zn392       O396   1.942       .  S
Zn392       O397   1.990       .  S
Zn392       O401   2.028       .  S
Zn392       O408   2.010       .  S
Zn393       O396   1.974       .  S
Zn393       O398   2.058       .  S
Zn393       O400   2.057       .  S
Zn393       O404   2.036       .  S
Zn394       O396   1.927       .  S
Zn394       O399   1.994       .  S
Zn394       O402   1.951       .  S
Zn394       O405   1.974       .  S
Zn395       O396   1.959       .  S
Zn395       O403   2.046       .  S
Zn395       O406   2.026       .  S
Zn395       O407   2.019       .  S
O397        C409   1.271       .  A
O398        C410   1.279       .  A
O399        C411   1.269       .  A
O400        C409   1.278       .  A
O401        C411   1.272       .  A
O402        C410   1.267       .  A
O403        C412   1.275       .  A
O404        C413   1.277       .  A
O405        C412   1.268       .  A
O406        C413   1.276       .  A
O407        C414   1.276       .  A
O408        C414   1.275       .  A
C409       C1516   1.479       .  S
C410       C1591   1.477       .  S
C411       C1564   1.470       .  S
C412       C1543   1.473       .  S
C413       C2431   1.489       .  S
C414       C1612   1.481       .  S
Zn415       O419   1.925       .  S
Zn415       O420   1.959       .  S
Zn415       O424   1.968       .  S
Zn415       O431   1.996       .  S
Zn416       O419   1.982       .  S
Zn416       O421   2.021       .  S
Zn416       O423   2.059       .  S
Zn416       O427   2.073       .  S
Zn417       O419   1.970       .  S
Zn417       O422   2.079       .  S
Zn417       O425   2.034       .  S
Zn417       O428   2.053       .  S
Zn418       O419   1.946       .  S
Zn418       O426   2.001       .  S
Zn418       O429   1.976       .  S
Zn418       O430   2.027       .  S
O420        C432   1.267       .  A
O421        C433   1.275       .  A
O422        C434   1.281       .  A
O423        C432   1.277       .  A
O424        C434   1.269       .  A
O425        C433   1.277       .  A
O426        C435   1.273       .  A
O427        C436   1.281       .  A
O428        C435   1.278       .  A
O429        C436   1.270       .  A
O430        C437   1.273       .  A
O431        C437   1.269       .  A
C432       C1444   1.467       .  S
C433       C2335   1.481       .  S
C434       C1495   1.488       .  S
C435       C1420   1.479       .  S
C436       C1468   1.489       .  S
C437       C1684   1.481       .  S
Zn438       O442   1.949       .  S
Zn438       O443   2.010       .  S
Zn438       O447   2.001       .  S
Zn438       O454   2.021       .  S
Zn439       O442   1.963       .  S
Zn439       O444   1.998       .  S
Zn439       O446   2.022       .  S
Zn439       O450   2.034       .  S
Zn440       O442   1.979       .  S
Zn440       O445   2.054       .  S
Zn440       O448   2.022       .  S
Zn440       O451   2.047       .  S
Zn441       O442   1.945       .  S
Zn441       O449   2.003       .  S
Zn441       O452   2.010       .  S
Zn441       O453   2.018       .  S
O443        C455   1.274       .  A
O444        C456   1.272       .  A
O445        C457   1.278       .  A
O446        C455   1.274       .  A
O447        C457   1.272       .  A
O448        C456   1.274       .  A
O449        C458   1.273       .  A
O450        C459   1.274       .  A
O451        C458   1.277       .  A
O452        C459   1.273       .  A
O453        C460   1.274       .  A
O454        C460   1.274       .  A
C455       C1447   1.478       .  S
C456       C2284   1.476       .  S
C457       C1372   1.490       .  S
C458       C1423   1.478       .  S
C459       C1396   1.478       .  S
C460       C1567   1.475       .  S
Zn461       O465   1.979       .  S
Zn461       O466   2.051       .  S
Zn461       O470   2.055       .  S
Zn461       O477   2.057       .  S
Zn462       O465   1.974       .  S
Zn462       O467   2.045       .  S
Zn462       O469   2.000       .  S
Zn462       O473   2.054       .  S
Zn463       O465   1.943       .  S
Zn463       O468   2.015       .  S
Zn463       O471   1.964       .  S
Zn463       O474   2.023       .  S
Zn464       O465   1.939       .  S
Zn464       O472   2.011       .  S
Zn464       O475   2.010       .  S
Zn464       O476   1.976       .  S
O466        C478   1.278       .  A
O467        C479   1.277       .  A
O468        C480   1.273       .  A
O469        C478   1.272       .  A
O470        C480   1.277       .  A
O471        C479   1.270       .  A
O472        C481   1.271       .  A
O473        C482   1.277       .  A
O474        C481   1.272       .  A
O475        C482   1.272       .  A
O476        C483   1.271       .  A
O477        C483   1.279       .  A
C478       C1351   1.478       .  S
C479       C1300   1.477       .  S
C480       C1660   1.483       .  S
C481       C2911   1.467       .  S
C482       C1327   1.484       .  S
C483       C1279   1.480       .  S
Zn484       O488   1.977       .  S
Zn484       O489   2.031       .  S
Zn484       O493   2.057       .  S
Zn484       O500   2.064       .  S
Zn485       O488   1.953       .  S
Zn485       O490   2.039       .  S
Zn485       O492   2.019       .  S
Zn485       O496   2.024       .  S
Zn486       O488   1.929       .  S
Zn486       O491   1.966       .  S
Zn486       O494   1.985       .  S
Zn486       O497   1.992       .  S
Zn487       O488   1.936       .  S
Zn487       O495   2.001       .  S
Zn487       O498   1.993       .  S
Zn487       O499   1.958       .  S
O489        C501   1.277       .  A
O490        C502   1.275       .  A
O491        C503   1.268       .  A
O492        C501   1.276       .  A
O493        C503   1.279       .  A
O494        C502   1.269       .  A
O495        C504   1.270       .  A
O496        C505   1.276       .  A
O497        C504   1.270       .  A
O498        C505   1.271       .  A
O499        C506   1.267       .  A
O500        C506   1.279       .  A
C501       C2815   1.486       .  S
C502       C1540   1.472       .  S
C503       C1276   1.472       .  S
C504       C1252   1.466       .  S
C505       C1303   1.479       .  S
C506       C1228   1.482       .  S
Zn507       O511   1.928       .  S
Zn507       O512   2.003       .  S
Zn507       O516   1.982       .  S
Zn507       O523   1.972       .  S
Zn508       O511   1.929       .  S
Zn508       O513   1.968       .  S
Zn508       O515   2.006       .  S
Zn508       O519   1.978       .  S
Zn509       O511   1.977       .  S
Zn509       O514   2.054       .  S
Zn509       O517   2.055       .  S
Zn509       O520   2.039       .  S
Zn510       O511   1.976       .  S
Zn510       O518   2.008       .  S
Zn510       O521   2.040       .  S
Zn510       O522   2.048       .  S
O512        C524   1.271       .  A
O513        C525   1.269       .  A
O514        C526   1.278       .  A
O515        C524   1.271       .  A
O516        C526   1.270       .  A
O517        C525   1.278       .  A
O518        C527   1.274       .  A
O519        C528   1.269       .  A
O520        C527   1.277       .  A
O521        C528   1.275       .  A
O522        C529   1.276       .  A
O523        C529   1.270       .  A
C524       C2692   1.478       .  S
C525       C1156   1.481       .  S
C526       C1492   1.484       .  S
C527       C1348   1.480       .  S
C528       C1204   1.473       .  S
C529       C1180   1.482       .  S
Zn530       O534   1.924       .  S
Zn530       O535   1.971       .  S
Zn530       O539   1.984       .  S
Zn530       O546   2.000       .  S
Zn531       O534   1.965       .  S
Zn531       O536   2.017       .  S
Zn531       O538   2.037       .  S
Zn531       O542   2.062       .  S
Zn532       O534   1.951       .  S
Zn532       O537   2.048       .  S
Zn532       O540   2.019       .  S
Zn532       O543   2.030       .  S
Zn533       O534   1.933       .  S
Zn533       O541   2.001       .  S
Zn533       O544   1.978       .  S
Zn533       O545   2.006       .  S
O535        C547   1.269       .  A
O536        C548   1.274       .  A
O537        C549   1.276       .  A
O538        C547   1.277       .  A
O539        C549   1.270       .  A
O540        C548   1.276       .  A
O541        C550   1.273       .  A
O542        C551   1.278       .  A
O543        C550   1.278       .  A
O544        C551   1.270       .  A
O545        C552   1.272       .  A
O546        C552   1.271       .  A
C547       C1159   1.474       .  S
C548       C2620   1.472       .  S
C549       C1399   1.474       .  S
C550       C1183   1.482       .  S
C551       C1135   1.484       .  S
C552       C1255   1.466       .  S
Zn553       O557   1.972       .  S
Zn553       O558   2.029       .  S
Zn553       O562   2.055   1_545  S
Zn553       O569   2.025       .  S
Zn554       O557   1.935       .  S
Zn554       O559   2.011       .  S
Zn554       O561   1.988       .  S
Zn554       O565   1.993       .  S
Zn555       O557   1.940       .  S
Zn555       O560   1.997   1_545  S
Zn555       O563   2.029       .  S
Zn555       O566   1.993       .  S
Zn556       O557   1.962       .  S
Zn556       O564   2.029       .  S
Zn556       O567   2.033       .  S
Zn556       O568   2.005       .  S
O558        C570   1.275       .  A
O559        C571   1.273       .  A
O560        C572   1.272       .  A
O561        C570   1.271       .  A
O562        C572   1.277       .  A
O563        C571   1.275       .  A
O564        C573   1.275       .  A
O565        C574   1.270       .  A
O566        C573   1.271       .  A
O567        C574   1.273       .  A
O568        C575   1.273       .  A
O569        C575   1.274       .  A
C570       C1207   1.468       .  S
C571       C2164   1.485       .  S
C572       C1039   1.479       .  S
C573       C1087   1.465       .  S
C574       C1063   1.465       .  S
C575       C1111   1.472       .  S
Zn576       O580   1.948       .  S
Zn576       O581   2.036       .  S
Zn576       O585   2.009       .  S
Zn576       O592   1.975       .  S
Zn577       O580   1.942       .  S
Zn577       O582   1.994       .  S
Zn577       O584   2.011       .  S
Zn577       O588   1.986       .  S
Zn578       O580   1.974       .  S
Zn578       O583   2.045       .  S
Zn578       O586   2.056       .  S
Zn578       O589   2.047       .  S
Zn579       O580   1.977       .  S
Zn579       O587   2.013       .  S
Zn579       O590   2.049       .  S
Zn579       O591   2.045       .  S
O581        C593   1.274       .  A
O582        C594   1.272       .  A
O583        C595   1.277       .  A
O584        C593   1.273       .  A
O585        C595   1.273       .  A
O586        C594   1.279       .  A
O587        C596   1.273       .  A
O588        C597   1.269       .  A
O589        C596   1.277       .  A
O590        C597   1.277       .  A
O591        C598   1.277       .  A
O592        C598   1.271       .  A
C593       C2095   1.486       .  S
C594       C1036   1.476       .  S
C595        C991   1.480       .  S
C596       C1012   1.480       .  S
C597       C1132   1.481       .  S
C598       C1060   1.480       .  S
Zn599       O603   1.948       .  S
Zn599       O604   1.986       .  S
Zn599       O608   2.007       .  S
Zn599       O615   1.994       .  S
Zn600       O603   1.983       .  S
Zn600       O605   2.058       .  S
Zn600       O607   2.031       .  S
Zn600       O611   2.035       .  S
Zn601       O603   1.957       .  S
Zn601       O606   2.032       .  S
Zn601       O609   2.013       .  S
Zn601       O612   2.010       .  S
Zn602       O603   1.974       .  S
Zn602       O610   2.044       .  S
Zn602       O613   2.018       .  S
Zn602       O614   2.068       .  S
O604        C616   1.271       .  A
O605        C617   1.278       .  A
O606        C618   1.274       .  A
O607        C616   1.275       .  A
O608        C618   1.270       .  A
O609        C617   1.273       .  A
O610        C619   1.279       .  A
O611        C620   1.276       .  A
O612        C619   1.275       .  A
O613        C620   1.274       .  A
O614        C621   1.278       .  A
O615        C621   1.270       .  A
C616        C940   1.460       .  S
C617        C964   1.492       .  S
C618       C1999   1.475       .  S
C619        C916   1.480       .  S
C620       C1015   1.484       .  S
C621       C1324   1.480       .  S
Zn622       O626   1.974       .  S
Zn622       O627   2.005       .  S
Zn622       O631   2.036       .  S
Zn622       O638   2.031   1_565  S
Zn623       O626   1.963       .  S
Zn623       O628   2.066       .  S
Zn623       O630   2.019       .  S
Zn623       O634   2.045       .  S
Zn624       O626   1.926       .  S
Zn624       O629   1.973       .  S
Zn624       O632   1.991       .  S
Zn624       O635   1.992       .  S
Zn625       O626   1.943       .  S
Zn625       O633   2.027       .  S
Zn625       O636   1.989       .  S
Zn625       O637   1.990   1_565  S
O627        C639   1.272       .  A
O628        C640   1.279       .  A
O629        C641   1.269       .  A
O630        C639   1.275       .  A
O631        C641   1.276       .  A
O632        C640   1.271       .  A
O633        C642   1.272       .  A
O634        C643   1.276       .  A
O635        C642   1.270       .  A
O636        C643   1.270       .  A
O637        C644   1.272       .  A
O638        C644   1.275       .  A
C639       C1108   1.476       .  S
C640        C919   1.482       .  S
C641       C1231   1.479       .  S
C642       C1951   1.473       .  S
C643        C892   1.466       .  S
C644        C943   1.475       .  S
Zn645       O649   1.935       .  S
Zn645       O650   2.018       .  S
Zn645       O654   1.982       .  S
Zn645       O661   1.979       .  S
Zn646       O649   1.944       .  S
Zn646       O651   1.983   1_545  S
Zn646       O653   2.018       .  S
Zn646       O657   1.999       .  S
Zn647       O649   1.974       .  S
Zn647       O652   2.062       .  S
Zn647       O655   2.044   1_545  S
Zn647       O658   2.024       .  S
Zn648       O649   1.974       .  S
Zn648       O656   2.055       .  S
Zn648       O659   2.055       .  S
Zn648       O660   2.064       .  S
O650        C662   1.273       .  A
O651        C663   1.271       .  A
O652        C664   1.277       .  A
O653        C662   1.272       .  A
O654        C664   1.269       .  A
O655        C663   1.279       .  A
O656        C665   1.277       .  A
O657        C666   1.273       .  A
O658        C665   1.274       .  A
O659        C666   1.278       .  A
O660        C667   1.281       .  A
O661        C667   1.271       .  A
C662       C1852   1.483       .  S
C663        C823   1.478       .  S
C664       C1639   1.478       .  S
C665        C871   1.480       .  S
C666        C895   1.487       .  S
C667        C847   1.485       .  S
Zn668       O672   1.975       .  S
Zn668       O673   2.037       .  S
Zn668       O677   2.036       .  S
Zn668       O684   2.057       .  S
Zn669       O672   1.979       .  S
Zn669       O674   2.071       .  S
Zn669       O676   2.023       .  S
Zn669       O680   2.072       .  S
Zn670       O672   1.956       .  S
Zn670       O675   1.994       .  S
Zn670       O678   1.998       .  S
Zn670       O681   2.029       .  S
Zn671       O672   1.934       .  S
Zn671       O679   1.996       .  S
Zn671       O682   1.968       .  S
Zn671       O683   2.007       .  S
O673        C685   1.277       .  A
O674        C686   1.279       .  A
O675        C687   1.274       .  A
O676        C685   1.276       .  A
O677        C687   1.277       .  A
O678        C686   1.271       .  A
O679        C688   1.271       .  A
O680        C689   1.280       .  A
O681        C688   1.273       .  A
O682        C689   1.270       .  A
O683        C690   1.272       .  A
O684        C690   1.278       .  A
C685       C1807   1.488       .  S
C686       C1519   1.484       .  S
C687        C820   1.482       .  S
C688        C796   1.481       .  S
C689        C844   1.480       .  S
C690        C967   1.491       .  S
Zn691       O695   1.937       .  S
Zn691       O696   1.982       .  S
Zn691       O700   2.001       .  S
Zn691       O707   1.985       .  S
Zn692       O695   1.969       .  S
Zn692       O697   2.033       .  S
Zn692       O699   2.054       .  S
Zn692       O703   2.033       .  S
Zn693       O695   1.951       .  S
Zn693       O698   2.015       .  S
Zn693       O701   2.022       .  S
Zn693       O704   1.995       .  S
Zn694       O695   1.975       .  S
Zn694       O702   2.036       .  S
Zn694       O705   2.014       .  S
Zn694       O706   2.053       .  S
O696        C708   1.269       .  A
O697        C709   1.275       .  A
O698        C710   1.273       .  A
O699        C708   1.276       .  A
O700        C710   1.271       .  A
O701        C709   1.275       .  A
O702        C711   1.275       .  A
O703        C712   1.278       .  A
O704        C711   1.272       .  A
O705        C712   1.274       .  A
O706        C713   1.278       .  A
O707        C713   1.270       .  A
C708        C775   1.473       .  S
C709        C988   1.475       .  S
C710       C1735   1.469       .  S
C711        C748   1.475       .  S
C712        C799   1.485       .  S
C713       C1471   1.486       .  S
Zn714       O718   1.929       .  S
Zn714       O719   1.984       .  S
Zn714       O723   1.987       .  S
Zn714       O730   1.970       .  S
Zn715       O718   1.945       .  S
Zn715       O720   1.982   1_565  S
Zn715       O722   2.035       .  S
Zn715       O726   1.983       .  S
Zn716       O718   1.973       .  S
Zn716       O721   2.069       .  S
Zn716       O724   2.057   1_565  S
Zn716       O727   2.029       .  S
Zn717       O718   1.974       .  S
Zn717       O725   2.037       .  S
Zn717       O728   2.049       .  S
Zn717       O729   2.057       .  S
O719        C731   1.269       .  A
O720        C732   1.270       .  A
O721        C733   1.280       .  A
O722        C731   1.274       .  A
O723        C733   1.270       .  A
O724        C732   1.279       .  A
O725        C734   1.277       .  A
O726        C735   1.270       .  A
O727        C734   1.276       .  A
O728        C735   1.277       .  A
O729        C736   1.278       .  A
O730        C736   1.268       .  A
C731       C1711   1.481       .  S
C732        C772   1.478       .  S
C733       C1375   1.490       .  S
C734        C868   1.490       .  S
C735       C1084   1.476       .  S
C736        C751   1.470       .  S
C737        C738   1.398       .  A
C737        C742   1.403       .  A
C737        H753   1.083       .  S
C738        C739   1.403       .  A
C738        H754   1.084       .  S
C739        C749   1.401       .  A
C739        C740   1.412       .  A
C740        C746   1.412       .  A
C740        C741   1.411       .  A
C741        C743   1.413       .  A
C741        C742   1.411       .  A
C742        C750   1.399       .  A
C743        C752   1.406       .  A
C743        C744   1.404       .  A
C744        C745   1.400       .  A
C744        H755   1.084       .  S
C745        C746   1.404       .  A
C745        H756   1.083       .  S
C746        C747   1.404       .  A
C747        C748   1.406       .  A
C747        H757   1.084       .  S
C748        C749   1.406       .  A
C749        H758   1.085       .  S
C750        C751   1.405       .  A
C750        H759   1.085       .  S
C751        C752   1.404       .  A
C752        H760   1.084       .  S
C761        C762   1.401       .  A
C761        C766   1.404       .  A
C761        H777   1.083       .  S
C762        C763   1.405       .  A
C762        H778   1.084       .  S
C763        C773   1.401       .  A
C763        C764   1.408       .  A
C764        C770   1.415       .  A
C764        C765   1.412       .  A
C765        C767   1.409       .  A
C765        C766   1.416       .  A
C766        C774   1.409       .  A
C767        C776   1.399       .  A
C767        C768   1.404       .  A
C768        C769   1.398       .  A
C768        H779   1.083       .  S
C769        C770   1.402       .  A
C769        H780   1.083       .  S
C770        C771   1.406       .  A
C771        C772   1.403       .  A
C771        H781   1.084       .  S
C772        C773   1.410       .  A
C773        H782   1.085       .  S
C774        C775   1.404       .  A
C774        H783   1.084       .  S
C775        C776   1.405       .  A
C776        H784   1.085       .  S
C785        C786   1.396       .  A
C785        C790   1.402       .  A
C785        H801   1.084       .  S
C786        C787   1.402       .  A
C786        H802   1.083       .  S
C787        C797   1.398       .  A
C787        C788   1.410       .  A
C788        C794   1.412       .  A
C788        C789   1.412       .  A
C789        C791   1.410       .  A
C789        C790   1.412       .  A
C790        C798   1.401       .  A
C791        C800   1.406       .  A
C791        C792   1.405       .  A
C792        C793   1.402       .  A
C792        H803   1.083       .  S
C793        C794   1.404       .  A
C793        H804   1.084       .  S
C794        C795   1.407       .  A
C795        C796   1.409       .  A
C795        H805   1.084       .  S
C796        C797   1.406       .  A
C797        H806   1.084       .  S
C798        C799   1.406       .  A
C798        H807   1.084       .  S
C799        C800   1.412       .  A
C800        H808   1.083       .  S
C809        C810   1.397       .  A
C809        C814   1.402       .  A
C809        H825   1.084       .  S
C810        C811   1.403       .  A
C810        H826   1.083       .  S
C811        C821   1.398       .  A
C811        C812   1.409       .  A
C812        C818   1.413       .  A
C812        C813   1.411       .  A
C813        C815   1.409       .  A
C813        C814   1.413       .  A
C814        C822   1.402       .  A
C815        C824   1.401       .  A
C815        C816   1.405       .  A
C816        C817   1.400       .  A
C816        H827   1.083       .  S
C817        C818   1.404       .  A
C817        H828   1.084       .  S
C818        C819   1.406       .  A
C819        C820   1.408       .  A
C819        H829   1.084       .  S
C820        C821   1.408       .  A
C821        H830   1.083       .  S
C822        C823   1.404       .  A
C822        H831   1.084       .  S
C823        C824   1.410       .  A
C824        H832   1.084       .  S
C833        C834   1.398       .  A
C833        C838   1.402       .  A
C833        H849   1.084       .  S
C834        C835   1.404       .  A
C834        H850   1.083       .  S
C835        C845   1.398       .  A
C835        C836   1.408       .  A
C836        C842   1.415       .  A
C836        C837   1.413       .  A
C837        C839   1.408       .  A
C837        C838   1.414       .  A
C838        C846   1.405       .  A
C839        C848   1.403       .  A
C839        C840   1.406       .  A
C840        C841   1.401       .  A
C840        H851   1.083       .  S
C841        C842   1.403       .  A
C841        H852   1.084       .  S
C842        C843   1.410       .  A
C843        C844   1.406       .  A
C843        H853   1.084       .  S
C844        C845   1.408       .  A
C845        H854   1.084       .  S
C846        C847   1.405       .  A
C846        H855   1.084       .  S
C847        C848   1.413       .  A
C848        H856   1.083       .  S
C857        C858   1.402       .  A
C857        C862   1.404   1_565  A
C857        H873   1.083       .  S
C858        C859   1.405       .  A
C858        H874   1.083       .  S
C859        C869   1.408       .  A
C859        C860   1.411   1_565  A
C860        C866   1.411       .  A
C860        C861   1.416       .  A
C861        C863   1.412       .  A
C861        C862   1.413       .  A
C862        C870   1.409       .  A
C863        C872   1.405       .  A
C863        C864   1.404       .  A
C864        C865   1.400       .  A
C864        H875   1.083       .  S
C865        C866   1.404       .  A
C865        H876   1.083       .  S
C866        C867   1.405       .  A
C867        C868   1.409   1_545  A
C867        H877   1.084       .  S
C868        C869   1.410       .  A
C869        H878   1.084       .  S
C870        C871   1.406       .  A
C870        H879   1.084       .  S
C871        C872   1.406       .  A
C872        H880   1.084       .  S
C881        C882   1.397   1_455  A
C881        C886   1.404       .  A
C881        H897   1.083       .  S
C882        C883   1.402       .  A
C882        H898   1.084       .  S
C883        C893   1.400       .  A
C883        C884   1.413   1_565  A
C884        C890   1.412       .  A
C884        C885   1.413   1_655  A
C885        C887   1.412       .  A
C885        C886   1.410   1_545  A
C886        C894   1.401   1_565  A
C887        C896   1.408       .  A
C887        C888   1.405       .  A
C888        C889   1.402   1_455  A
C888        H899   1.084       .  S
C889        C890   1.405       .  A
C889        H900   1.083       .  S
C890        C891   1.407       .  A
C891        C892   1.405   1_545  A
C891        H901   1.084       .  S
C892        C893   1.400       .  A
C893        H902   1.085       .  S
C894        C895   1.409       .  A
C894        H903   1.084   1_545  S
C895        C896   1.409       .  A
C896        H904   1.084       .  S
C905        C906   1.399       .  A
C905        C910   1.404       .  A
C905        H921   1.084       .  S
C906        C907   1.403       .  A
C906        H922   1.083       .  S
C907        C917   1.404       .  A
C907        C908   1.412       .  A
C908        C914   1.411       .  A
C908        C909   1.414       .  A
C909        C911   1.413       .  A
C909        C910   1.410       .  A
C910        C918   1.402       .  A
C911        C920   1.408       .  A
C911        C912   1.404       .  A
C912        C913   1.401       .  A
C912        H923   1.083       .  S
C913        C914   1.404       .  A
C913        H924   1.084       .  S
C914        C915   1.406       .  A
C915        C916   1.407       .  A
C915        H925   1.084       .  S
C916        C917   1.407       .  A
C917        H926   1.084       .  S
C918        C919   1.408       .  A
C918        H927   1.085       .  S
C919        C920   1.407       .  A
C920        H928   1.084       .  S
C929        C930   1.395       .  A
C929        C934   1.402       .  A
C929        H945   1.084       .  S
C930        C931   1.401       .  A
C930        H946   1.084       .  S
C931        C941   1.397       .  A
C931        C932   1.412       .  A
C932        C938   1.413       .  A
C932        C933   1.409       .  A
C933        C935   1.412       .  A
C933        C934   1.411       .  A
C934        C942   1.396       .  A
C935        C944   1.406       .  A
C935        C936   1.405       .  A
C936        C937   1.401       .  A
C936        H947   1.083       .  S
C937        C938   1.404       .  A
C937        H948   1.083       .  S
C938        C939   1.405       .  A
C939        C940   1.404       .  A
C939        H949   1.084       .  S
C940        C941   1.399       .  A
C941        H950   1.085       .  S
C942        C943   1.404       .  A
C942        H951   1.085       .  S
C943        C944   1.407       .  A
C944        H952   1.084       .  S
C953        C954   1.402   1_455  A
C953        C958   1.405       .  A
C953        H969   1.083       .  S
C954        C955   1.404       .  A
C954        H970   1.084       .  S
C955        C965   1.410       .  A
C955        C956   1.413       .  A
C956        C962   1.409       .  A
C956        C957   1.416   1_655  A
C957        C959   1.413       .  A
C957        C958   1.409       .  A
C958        C966   1.406       .  A
C959        C968   1.407       .  A
C959        C960   1.403       .  A
C960        C961   1.399   1_455  A
C960        H971   1.084       .  S
C961        C962   1.404       .  A
C961        H972   1.083       .  S
C962        C963   1.403       .  A
C963        C964   1.410       .  A
C963        H973   1.084       .  S
C964        C965   1.409       .  A
C965        H974   1.085       .  S
C966        C967   1.412       .  A
C966        H975   1.084       .  S
C967        C968   1.407       .  A
C968        H976   1.085       .  S
C977        C978   1.400   1_655  A
C977        C982   1.405       .  A
C977        H993   1.084       .  S
C978        C979   1.404       .  A
C978        H994   1.084       .  S
C979        C989   1.406       .  A
C979        C980   1.413       .  A
C980        C986   1.411       .  A
C980        C981   1.413   1_455  A
C981        C983   1.413       .  A
C981        C982   1.410       .  A
C982        C990   1.404       .  A
C983        C992   1.406       .  A
C983        C984   1.403       .  A
C984        C985   1.400   1_655  A
C984        H995   1.084       .  S
C985        C986   1.404       .  A
C985        H996   1.084       .  S
C986        C987   1.403       .  A
C987        C988   1.405       .  A
C987        H997   1.085       .  S
C988        C989   1.405       .  A
C989        H998   1.084       .  S
C990        C991   1.408       .  A
C990        H999   1.085       .  S
C991        C992   1.405       .  A
C992       H1000   1.084       .  S
C1001      C1002   1.400       .  A
C1001      C1006   1.404       .  A
C1001      H1017   1.084       .  S
C1002      C1003   1.404       .  A
C1002      H1018   1.084       .  S
C1003      C1013   1.405       .  A
C1003      C1004   1.412       .  A
C1004      C1010   1.412       .  A
C1004      C1005   1.414       .  A
C1005      C1007   1.412       .  A
C1005      C1006   1.411       .  A
C1006      C1014   1.404       .  A
C1007      C1016   1.406       .  A
C1007      C1008   1.404       .  A
C1008      C1009   1.400       .  A
C1008      H1019   1.084       .  S
C1009      C1010   1.404       .  A
C1009      H1020   1.084       .  S
C1010      C1011   1.406       .  A
C1011      C1012   1.406       .  A
C1011      H1021   1.084       .  S
C1012      C1013   1.407       .  A
C1013      H1022   1.084       .  S
C1014      C1015   1.408       .  A
C1014      H1023   1.084       .  S
C1015      C1016   1.407       .  A
C1016      H1024   1.084       .  S
C1025      C1026   1.399       .  A
C1025      C1030   1.404       .  A
C1025      H1041   1.083       .  S
C1026      C1027   1.402       .  A
C1026      H1042   1.084       .  S
C1027      C1037   1.406       .  A
C1027      C1028   1.415       .  A
C1028      C1034   1.409       .  A
C1028      C1029   1.413       .  A
C1029      C1031   1.415       .  A
C1029      C1030   1.409       .  A
C1030      C1038   1.400       .  A
C1031      C1040   1.409       .  A
C1031      C1032   1.404       .  A
C1032      C1033   1.401       .  A
C1032      H1043   1.084       .  S
C1033      C1034   1.405       .  A
C1033      H1044   1.083       .  S
C1034      C1035   1.403       .  A
C1035      C1036   1.408       .  A
C1035      H1045   1.084       .  S
C1036      C1037   1.402       .  A
C1037      H1046   1.084       .  S
C1038      C1039   1.407       .  A
C1038      H1047   1.084       .  S
C1039      C1040   1.406       .  A
C1040      H1048   1.084       .  S
C1049      C1050   1.402       .  A
C1049      C1054   1.405       .  A
C1049      H1065   1.084       .  S
C1050      C1051   1.405       .  A
C1050      H1066   1.083       .  S
C1051      C1061   1.408       .  A
C1051      C1052   1.413       .  A
C1052      C1058   1.409       .  A
C1052      C1053   1.411       .  A
C1053      C1055   1.413       .  A
C1053      C1054   1.412       .  A
C1054      C1062   1.406       .  A
C1055      C1064   1.398       .  A
C1055      C1056   1.401       .  A
C1056      C1057   1.395       .  A
C1056      H1067   1.084       .  S
C1057      C1058   1.403       .  A
C1057      H1068   1.083       .  S
C1058      C1059   1.396       .  A
C1059      C1060   1.407       .  A
C1059      H1069   1.084       .  S
C1060      C1061   1.408       .  A
C1061      H1070   1.084       .  S
C1062      C1063   1.406       .  A
C1062      H1071   1.084       .  S
C1063      C1064   1.400       .  A
C1064      H1072   1.085       .  S
C1073      C1074   1.398   1_655  A
C1073      C1078   1.402       .  A
C1073      H1089   1.084       .  S
C1074      C1075   1.404       .  A
C1074      H1090   1.084       .  S
C1075      C1085   1.400       .  A
C1075      C1076   1.409   1_545  A
C1076      C1082   1.414       .  A
C1076      C1077   1.411   1_465  A
C1077      C1079   1.411   1_545  A
C1077      C1078   1.414       .  A
C1078      C1086   1.403       .  A
C1079      C1088   1.400       .  A
C1079      C1080   1.404       .  A
C1080      C1081   1.399   1_655  A
C1080      H1091   1.084       .  S
C1081      C1082   1.403       .  A
C1081      H1092   1.084       .  S
C1082      C1083   1.405       .  A
C1083      C1084   1.404       .  A
C1083      H1093   1.084       .  S
C1084      C1085   1.408   1_565  A
C1085      H1094   1.085       .  S
C1086      C1087   1.401       .  A
C1086      H1095   1.085       .  S
C1087      C1088   1.404   1_545  A
C1088      H1096   1.085       .  S
C1097      C1098   1.400       .  A
C1097      C1102   1.404       .  A
C1097      H1113   1.083       .  S
C1098      C1099   1.404       .  A
C1098      H1114   1.083       .  S
C1099      C1109   1.404   1_545  A
C1099      C1100   1.411       .  A
C1100      C1106   1.411   1_545  A
C1100      C1101   1.410       .  A
C1101      C1103   1.411       .  A
C1101      C1102   1.412       .  A
C1102      C1110   1.405       .  A
C1103      C1112   1.399       .  A
C1103      C1104   1.402       .  A
C1104      C1105   1.397   1_545  A
C1104      H1115   1.083       .  S
C1105      C1106   1.402       .  A
C1105      H1116   1.083       .  S
C1106      C1107   1.399       .  A
C1107      C1108   1.405       .  A
C1107      H1117   1.084       .  S
C1108      C1109   1.408       .  A
C1109      H1118   1.084       .  S
C1110      C1111   1.406       .  A
C1110      H1119   1.084       .  S
C1111      C1112   1.403       .  A
C1112      H1120   1.084       .  S
C1121      C1122   1.397       .  A
C1121      C1126   1.403       .  A
C1121      H1137   1.083       .  S
C1122      C1123   1.402       .  A
C1122      H1138   1.084       .  S
C1123      C1133   1.403       .  A
C1123      C1124   1.413       .  A
C1124      C1130   1.409       .  A
C1124      C1125   1.413       .  A
C1125      C1127   1.414       .  A
C1125      C1126   1.409       .  A
C1126      C1134   1.399       .  A
C1127      C1136   1.409       .  A
C1127      C1128   1.404       .  A
C1128      C1129   1.401       .  A
C1128      H1139   1.084       .  S
C1129      C1130   1.405       .  A
C1129      H1140   1.083       .  S
C1130      C1131   1.404       .  A
C1131      C1132   1.411       .  A
C1131      H1141   1.084       .  S
C1132      C1133   1.404       .  A
C1133      H1142   1.085       .  S
C1134      C1135   1.409       .  A
C1134      H1143   1.084       .  S
C1135      C1136   1.408       .  A
C1136      H1144   1.084       .  S
C1145      C1146   1.396       .  A
C1145      C1150   1.402       .  A
C1145      H1161   1.083       .  S
C1146      C1147   1.403       .  A
C1146      H1162   1.084       .  S
C1147      C1157   1.397   1_565  A
C1147      C1148   1.408       .  A
C1148      C1154   1.414       .  A
C1148      C1149   1.410       .  A
C1149      C1151   1.409       .  A
C1149      C1150   1.414       .  A
C1150      C1158   1.401       .  A
C1151      C1160   1.400       .  A
C1151      C1152   1.404       .  A
C1152      C1153   1.400       .  A
C1152      H1163   1.084       .  S
C1153      C1154   1.403       .  A
C1153      H1164   1.083       .  S
C1154      C1155   1.406   1_565  A
C1155      C1156   1.406       .  A
C1155      H1165   1.083       .  S
C1156      C1157   1.410       .  A
C1157      H1166   1.084       .  S
C1158      C1159   1.403       .  A
C1158      H1167   1.084       .  S
C1159      C1160   1.409       .  A
C1160      H1168   1.085       .  S
C1169      C1170   1.395       .  A
C1169      C1174   1.401       .  A
C1169      H1185   1.083       .  S
C1170      C1171   1.402       .  A
C1170      H1186   1.084       .  S
C1171      C1181   1.394       .  A
C1171      C1172   1.408       .  A
C1172      C1178   1.414       .  A
C1172      C1173   1.411       .  A
C1173      C1175   1.409       .  A
C1173      C1174   1.413       .  A
C1174      C1182   1.400       .  A
C1175      C1184   1.404       .  A
C1175      C1176   1.405       .  A
C1176      C1177   1.402       .  A
C1176      H1187   1.084       .  S
C1177      C1178   1.404       .  A
C1177      H1188   1.083       .  S
C1178      C1179   1.409       .  A
C1179      C1180   1.408       .  A
C1179      H1189   1.083       .  S
C1180      C1181   1.408       .  A
C1181      H1190   1.084       .  S
C1182      C1183   1.404       .  A
C1182      H1191   1.084       .  S
C1183      C1184   1.411       .  A
C1184      H1192   1.084       .  S
C1193      C1194   1.397       .  A
C1193      C1198   1.402       .  A
C1193      H1209   1.083       .  S
C1194      C1195   1.403       .  A
C1194      H1210   1.084       .  S
C1195      C1205   1.397       .  A
C1195      C1196   1.409       .  A
C1196      C1202   1.415       .  A
C1196      C1197   1.409       .  A
C1197      C1199   1.409       .  A
C1197      C1198   1.415       .  A
C1198      C1206   1.402       .  A
C1199      C1208   1.399       .  A
C1199      C1200   1.404       .  A
C1200      C1201   1.399       .  A
C1200      H1211   1.084       .  S
C1201      C1202   1.403       .  A
C1201      H1212   1.084       .  S
C1202      C1203   1.405       .  A
C1203      C1204   1.404       .  A
C1203      H1213   1.084       .  S
C1204      C1205   1.407       .  A
C1205      H1214   1.085       .  S
C1206      C1207   1.401       .  A
C1206      H1215   1.084       .  S
C1207      C1208   1.406       .  A
C1208      H1216   1.085       .  S
C1217      C1218   1.398       .  A
C1217      C1222   1.402       .  A
C1217      H1233   1.085       .  S
C1218      C1219   1.405       .  A
C1218      H1234   1.082       .  S
C1219      C1229   1.397       .  A
C1219      C1220   1.407       .  A
C1220      C1226   1.415       .  A
C1220      C1221   1.410       .  A
C1221      C1223   1.407       .  A
C1221      C1222   1.415       .  A
C1222      C1230   1.403       .  A
C1223      C1232   1.398       .  A
C1223      C1224   1.404       .  A
C1224      C1225   1.398       .  A
C1224      H1235   1.082       .  S
C1225      C1226   1.402       .  A
C1225      H1236   1.085       .  S
C1226      C1227   1.406       .  A
C1227      C1228   1.404       .  A
C1227      H1237   1.085       .  S
C1228      C1229   1.412       .  A
C1229      H1238   1.083       .  S
C1230      C1231   1.404       .  A
C1230      H1239   1.085       .  S
C1231      C1232   1.410       .  A
C1232      H1240   1.083       .  S
C1241      C1242   1.398       .  A
C1241      C1246   1.403       .  A
C1241      H1257   1.084       .  S
C1242      C1243   1.403       .  A
C1242      H1258   1.083       .  S
C1243      C1253   1.401       .  A
C1243      C1244   1.412       .  A
C1244      C1250   1.411       .  A
C1244      C1245   1.408       .  A
C1245      C1247   1.412       .  A
C1245      C1246   1.412       .  A
C1246      C1254   1.400       .  A
C1247      C1256   1.399       .  A
C1247      C1248   1.402       .  A
C1248      C1249   1.396       .  A
C1248      H1259   1.083       .  S
C1249      C1250   1.402       .  A
C1249      H1260   1.084       .  S
C1250      C1251   1.397       .  A
C1251      C1252   1.402       .  A
C1251      H1261   1.085       .  S
C1252      C1253   1.405       .  A
C1253      H1262   1.084       .  S
C1254      C1255   1.404       .  A
C1254      H1263   1.085       .  S
C1255      C1256   1.402       .  A
C1256      H1264   1.084       .  S
C1265      C1266   1.397       .  A
C1265      C1270   1.404       .  A
C1265      H1281   1.083       .  S
C1266      C1267   1.402       .  A
C1266      H1282   1.084       .  S
C1267      C1277   1.404       .  A
C1267      C1268   1.415       .  A
C1268      C1274   1.409       .  A
C1268      C1269   1.411       .  A
C1269      C1271   1.414       .  A
C1269      C1270   1.408       .  A
C1270      C1278   1.397       .  A
C1271      C1280   1.407       .  A
C1271      C1272   1.403       .  A
C1272      C1273   1.400       .  A
C1272      H1283   1.083       .  S
C1273      C1274   1.404       .  A
C1273      H1284   1.083       .  S
C1274      C1275   1.401       .  A
C1275      C1276   1.408       .  A
C1275      H1285   1.084       .  S
C1276      C1277   1.402       .  A
C1277      H1286   1.084       .  S
C1278      C1279   1.409       .  A
C1278      H1287   1.084       .  S
C1279      C1280   1.406       .  A
C1280      H1288   1.084       .  S
C1289      C1290   1.400       .  A
C1289      C1294   1.405       .  A
C1289      H1305   1.083       .  S
C1290      C1291   1.403       .  A
C1290      H1306   1.084       .  S
C1291      C1301   1.406       .  A
C1291      C1292   1.414       .  A
C1292      C1298   1.408       .  A
C1292      C1293   1.410       .  A
C1293      C1295   1.413       .  A
C1293      C1294   1.409       .  A
C1294      C1302   1.402   1_545  A
C1295      C1304   1.399   1_545  A
C1295      C1296   1.401       .  A
C1296      C1297   1.395       .  A
C1296      H1307   1.084       .  S
C1297      C1298   1.403       .  A
C1297      H1308   1.083       .  S
C1298      C1299   1.395       .  A
C1299      C1300   1.408       .  A
C1299      H1309   1.084       .  S
C1300      C1301   1.406       .  A
C1301      H1310   1.084       .  S
C1302      C1303   1.410       .  A
C1302      H1311   1.083       .  S
C1303      C1304   1.404       .  A
C1304      H1312   1.084       .  S
C1313      C1314   1.402       .  A
C1313      C1318   1.405       .  A
C1313      H1329   1.083       .  S
C1314      C1315   1.405       .  A
C1314      H1330   1.084       .  S
C1315      C1325   1.410       .  A
C1315      C1316   1.413       .  A
C1316      C1322   1.411       .  A
C1316      C1317   1.416       .  A
C1317      C1319   1.412       .  A
C1317      C1318   1.412       .  A
C1318      C1326   1.409       .  A
C1319      C1328   1.404       .  A
C1319      C1320   1.403       .  A
C1320      C1321   1.399       .  A
C1320      H1331   1.084       .  S
C1321      C1322   1.404       .  A
C1321      H1332   1.083       .  S
C1322      C1323   1.404       .  A
C1323      C1324   1.406       .  A
C1323      H1333   1.085       .  S
C1324      C1325   1.407       .  A
C1325      H1334   1.084       .  S
C1326      C1327   1.408       .  A
C1326      H1335   1.084       .  S
C1327      C1328   1.407       .  A
C1328      H1336   1.085       .  S
C1337      C1338   1.401       .  A
C1337      C1342   1.404       .  A
C1337      H1353   1.083       .  S
C1338      C1339   1.404       .  A
C1338      H1354   1.083       .  S
C1339      C1349   1.406       .  A
C1339      C1340   1.412       .  A
C1340      C1346   1.411       .  A
C1340      C1341   1.413       .  A
C1341      C1343   1.411       .  A
C1341      C1342   1.412       .  A
C1342      C1350   1.406       .  A
C1343      C1352   1.402       .  A
C1343      C1344   1.403       .  A
C1344      C1345   1.398       .  A
C1344      H1355   1.083       .  S
C1345      C1346   1.403       .  A
C1345      H1356   1.084       .  S
C1346      C1347   1.402       .  A
C1347      C1348   1.407       .  A
C1347      H1357   1.084       .  S
C1348      C1349   1.407       .  A
C1349      H1358   1.084       .  S
C1350      C1351   1.406       .  A
C1350      H1359   1.084       .  S
C1351      C1352   1.406       .  A
C1352      H1360   1.084       .  S
C1361      C1362   1.400       .  A
C1361      C1366   1.405       .  A
C1361      H1377   1.083       .  S
C1362      C1363   1.403       .  A
C1362      H1378   1.084       .  S
C1363      C1373   1.408       .  A
C1363      C1364   1.413       .  A
C1364      C1370   1.409       .  A
C1364      C1365   1.415       .  A
C1365      C1367   1.414       .  A
C1365      C1366   1.408       .  A
C1366      C1374   1.403       .  A
C1367      C1376   1.407       .  A
C1367      C1368   1.403       .  A
C1368      C1369   1.400       .  A
C1368      H1379   1.084       .  S
C1369      C1370   1.405       .  A
C1369      H1380   1.083       .  S
C1370      C1371   1.403       .  A
C1371      C1372   1.411       .  A
C1371      H1381   1.084       .  S
C1372      C1373   1.408       .  A
C1373      H1382   1.085       .  S
C1374      C1375   1.413       .  A
C1374      H1383   1.084       .  S
C1375      C1376   1.406       .  A
C1376      H1384   1.084       .  S
C1385      C1386   1.400       .  A
C1385      C1390   1.404       .  A
C1385      H1401   1.084       .  S
C1386      C1387   1.404       .  A
C1386      H1402   1.084       .  S
C1387      C1397   1.406       .  A
C1387      C1388   1.414       .  A
C1388      C1394   1.410       .  A
C1388      C1389   1.412       .  A
C1389      C1391   1.414       .  A
C1389      C1390   1.410       .  A
C1390      C1398   1.401       .  A
C1391      C1400   1.405       .  A
C1391      C1392   1.403       .  A
C1392      C1393   1.399       .  A
C1392      H1403   1.084       .  S
C1393      C1394   1.404       .  A
C1393      H1404   1.084       .  S
C1394      C1395   1.401       .  A
C1395      C1396   1.407       .  A
C1395      H1405   1.085       .  S
C1396      C1397   1.406       .  A
C1397      H1406   1.084       .  S
C1398      C1399   1.407       .  A
C1398      H1407   1.085       .  S
C1399      C1400   1.403       .  A
C1400      H1408   1.084       .  S
C1409      C1410   1.398       .  A
C1409      C1414   1.403       .  A
C1409      H1425   1.084       .  S
C1410      C1411   1.403       .  A
C1410      H1426   1.083       .  S
C1411      C1421   1.402       .  A
C1411      C1412   1.412       .  A
C1412      C1418   1.412       .  A
C1412      C1413   1.413       .  A
C1413      C1415   1.412       .  A
C1413      C1414   1.411       .  A
C1414      C1422   1.401       .  A
C1415      C1424   1.408       .  A
C1415      C1416   1.405       .  A
C1416      C1417   1.402       .  A
C1416      H1427   1.084       .  S
C1417      C1418   1.405       .  A
C1417      H1428   1.083       .  S
C1418      C1419   1.408       .  A
C1419      C1420   1.408       .  A
C1419      H1429   1.084       .  S
C1420      C1421   1.405       .  A
C1421      H1430   1.084       .  S
C1422      C1423   1.405       .  A
C1422      H1431   1.085       .  S
C1423      C1424   1.407       .  A
C1424      H1432   1.084       .  S
C1433      C1434   1.395       .  A
C1433      C1438   1.401       .  A
C1433      H1449   1.084       .  S
C1434      C1435   1.402       .  A
C1434      H1450   1.083       .  S
C1435      C1445   1.395       .  A
C1435      C1436   1.410       .  A
C1436      C1442   1.414       .  A
C1436      C1437   1.411       .  A
C1437      C1439   1.411       .  A
C1437      C1438   1.412       .  A
C1438      C1446   1.398   1_545  A
C1439      C1448   1.407   1_545  A
C1439      C1440   1.406       .  A
C1440      C1441   1.403       .  A
C1440      H1451   1.083       .  S
C1441      C1442   1.405       .  A
C1441      H1452   1.084       .  S
C1442      C1443   1.410       .  A
C1443      C1444   1.406       .  A
C1443      H1453   1.084       .  S
C1444      C1445   1.402       .  A
C1445      H1454   1.085       .  S
C1446      C1447   1.404       .  A
C1446      H1455   1.085       .  S
C1447      C1448   1.409       .  A
C1448      H1456   1.084       .  S
C1457      C1458   1.400       .  A
C1457      C1462   1.405       .  A
C1457      H1473   1.083       .  S
C1458      C1459   1.403       .  A
C1458      H1474   1.084       .  S
C1459      C1469   1.408       .  A
C1459      C1460   1.415       .  A
C1460      C1466   1.407       .  A
C1460      C1461   1.413       .  A
C1461      C1463   1.414       .  A
C1461      C1462   1.408       .  A
C1462      C1470   1.401       .  A
C1463      C1472   1.407       .  A
C1463      C1464   1.403       .  A
C1464      C1465   1.399       .  A
C1464      H1475   1.084       .  S
C1465      C1466   1.405       .  A
C1465      H1476   1.083       .  S
C1466      C1467   1.400       .  A
C1467      C1468   1.413       .  A
C1467      H1477   1.083       .  S
C1468      C1469   1.406       .  A
C1469      H1478   1.084       .  S
C1470      C1471   1.412       .  A
C1470      H1479   1.083       .  S
C1471      C1472   1.406       .  A
C1472      H1480   1.085       .  S
C1481      C1482   1.399       .  A
C1481      C1486   1.405       .  A
C1481      H1497   1.084       .  S
C1482      C1483   1.403       .  A
C1482      H1498   1.083       .  S
C1483      C1493   1.407       .  A
C1483      C1484   1.414       .  A
C1484      C1490   1.408       .  A
C1484      C1485   1.413       .  A
C1485      C1487   1.415       .  A
C1485      C1486   1.407       .  A
C1486      C1494   1.400       .  A
C1487      C1496   1.408       .  A
C1487      C1488   1.403       .  A
C1488      C1489   1.399       .  A
C1488      H1499   1.083       .  S
C1489      C1490   1.404       .  A
C1489      H1500   1.084       .  S
C1490      C1491   1.400       .  A
C1491      C1492   1.410       .  A
C1491      H1501   1.084       .  S
C1492      C1493   1.406       .  A
C1493      H1502   1.084       .  S
C1494      C1495   1.413       .  A
C1494      H1503   1.084       .  S
C1495      C1496   1.406       .  A
C1496      H1504   1.084       .  S
C1505      C1506   1.401       .  A
C1505      C1510   1.404       .  A
C1505      H1521   1.084       .  S
C1506      C1507   1.404       .  A
C1506      H1522   1.083       .  S
C1507      C1517   1.408       .  A
C1507      C1508   1.413       .  A
C1508      C1514   1.411       .  A
C1508      C1509   1.415       .  A
C1509      C1511   1.411       .  A
C1509      C1510   1.412       .  A
C1510      C1518   1.408       .  A
C1511      C1520   1.405       .  A
C1511      C1512   1.404       .  A
C1512      C1513   1.399       .  A
C1512      H1523   1.084       .  S
C1513      C1514   1.404       .  A
C1513      H1524   1.084       .  S
C1514      C1515   1.402       .  A
C1515      C1516   1.407       .  A
C1515      H1525   1.085       .  S
C1516      C1517   1.406       .  A
C1517      H1526   1.084       .  S
C1518      C1519   1.407       .  A
C1518      H1527   1.084       .  S
C1519      C1520   1.409       .  A
C1520      H1528   1.085       .  S
C1529      C1530   1.399       .  A
C1529      C1534   1.403       .  A
C1529      H1545   1.083       .  S
C1530      C1531   1.404       .  A
C1530      H1546   1.084       .  S
C1531      C1541   1.400       .  A
C1531      C1532   1.410       .  A
C1532      C1538   1.414       .  A
C1532      C1533   1.411       .  A
C1533      C1535   1.410       .  A
C1533      C1534   1.414       .  A
C1534      C1542   1.404       .  A
C1535      C1544   1.399       .  A
C1535      C1536   1.404       .  A
C1536      C1537   1.398       .  A
C1536      H1547   1.084       .  S
C1537      C1538   1.403       .  A
C1537      H1548   1.083       .  S
C1538      C1539   1.404       .  A
C1539      C1540   1.403       .  A
C1539      H1549   1.084       .  S
C1540      C1541   1.406       .  A
C1541      H1550   1.085       .  S
C1542      C1543   1.403       .  A
C1542      H1551   1.084       .  S
C1543      C1544   1.407       .  A
C1544      H1552   1.085       .  S
C1553      C1554   1.398       .  A
C1553      C1558   1.403       .  A
C1553      H1569   1.084       .  S
C1554      C1555   1.403       .  A
C1554      H1570   1.084       .  S
C1555      C1565   1.401       .  A
C1555      C1556   1.412       .  A
C1556      C1562   1.412       .  A
C1556      C1557   1.411       .  A
C1557      C1559   1.412       .  A
C1557      C1558   1.412       .  A
C1558      C1566   1.402       .  A
C1559      C1568   1.404       .  A
C1559      C1560   1.404       .  A
C1560      C1561   1.400       .  A
C1560      H1571   1.084       .  S
C1561      C1562   1.404       .  A
C1561      H1572   1.084       .  S
C1562      C1563   1.404       .  A
C1563      C1564   1.405       .  A
C1563      H1573   1.085       .  S
C1564      C1565   1.403       .  A
C1565      H1574   1.085       .  S
C1566      C1567   1.405       .  A
C1566      H1575   1.085       .  S
C1567      C1568   1.406       .  A
C1568      H1576   1.084       .  S
C1577      C1578   1.399       .  A
C1577      C1582   1.405       .  A
C1577      H1593   1.084       .  S
C1578      C1579   1.402   1_565  A
C1578      H1594   1.083       .  S
C1579      C1589   1.406       .  A
C1579      C1580   1.415   1_545  A
C1580      C1586   1.407   1_565  A
C1580      C1581   1.409       .  A
C1581      C1583   1.415       .  A
C1581      C1582   1.407       .  A
C1582      C1590   1.398       .  A
C1583      C1592   1.403       .  A
C1583      C1584   1.401       .  A
C1584      C1585   1.396       .  A
C1584      H1595   1.084       .  S
C1585      C1586   1.404   1_565  A
C1585      H1596   1.083   1_565  S
C1586      C1587   1.394       .  A
C1587      C1588   1.411       .  A
C1587      H1597   1.084       .  S
C1588      C1589   1.405       .  A
C1589      H1598   1.084       .  S
C1590      C1591   1.411       .  A
C1590      H1599   1.084       .  S
C1591      C1592   1.402       .  A
C1592      H1600   1.084       .  S
C1601      C1602   1.398       .  A
C1601      C1606   1.403       .  A
C1601      H1617   1.084       .  S
C1602      C1603   1.404       .  A
C1602      H1618   1.083       .  S
C1603      C1613   1.401       .  A
C1603      C1604   1.410       .  A
C1604      C1610   1.412       .  A
C1604      C1605   1.411       .  A
C1605      C1607   1.408       .  A
C1605      C1606   1.413       .  A
C1606      C1614   1.405       .  A
C1607      C1616   1.399       .  A
C1607      C1608   1.404       .  A
C1608      C1609   1.398       .  A
C1608      H1619   1.083       .  S
C1609      C1610   1.403       .  A
C1609      H1620   1.084       .  S
C1610      C1611   1.402       .  A
C1611      C1612   1.407       .  A
C1611      H1621   1.084       .  S
C1612      C1613   1.408       .  A
C1613      H1622   1.084       .  S
C1614      C1615   1.405       .  A
C1614      H1623   1.084       .  S
C1615      C1616   1.411       .  A
C1616      H1624   1.084       .  S
C1625      C1626   1.400       .  A
C1625      C1630   1.405       .  A
C1625      H1641   1.084       .  S
C1626      C1627   1.403       .  A
C1626      H1642   1.083       .  S
C1627      C1637   1.410       .  A
C1627      C1628   1.416       .  A
C1628      C1634   1.408       .  A
C1628      C1629   1.414       .  A
C1629      C1631   1.416       .  A
C1629      C1630   1.408       .  A
C1630      C1638   1.400       .  A
C1631      C1640   1.409       .  A
C1631      C1632   1.403       .  A
C1632      C1633   1.400       .  A
C1632      H1643   1.083       .  S
C1633      C1634   1.405       .  A
C1633      H1644   1.084       .  S
C1634      C1635   1.401       .  A
C1635      C1636   1.410       .  A
C1635      H1645   1.085       .  S
C1636      C1637   1.404       .  A
C1637      H1646   1.084       .  S
C1638      C1639   1.408       .  A
C1638      H1647   1.085       .  S
C1639      C1640   1.404       .  A
C1640      H1648   1.084       .  S
C1649      C1650   1.401       .  A
C1649      C1654   1.404       .  A
C1649      H1665   1.084       .  S
C1650      C1651   1.404       .  A
C1650      H1666   1.083       .  S
C1651      C1661   1.409       .  A
C1651      C1652   1.414       .  A
C1652      C1658   1.410       .  A
C1652      C1653   1.415       .  A
C1653      C1655   1.414       .  A
C1653      C1654   1.410       .  A
C1654      C1662   1.404       .  A
C1655      C1664   1.407       .  A
C1655      C1656   1.403       .  A
C1656      C1657   1.400       .  A
C1656      H1667   1.083       .  S
C1657      C1658   1.404       .  A
C1657      H1668   1.084       .  S
C1658      C1659   1.404       .  A
C1659      C1660   1.408       .  A
C1659      H1669   1.085       .  S
C1660      C1661   1.406       .  A
C1661      H1670   1.084       .  S
C1662      C1663   1.407       .  A
C1662      H1671   1.085       .  S
C1663      C1664   1.404       .  A
C1664      H1672   1.084       .  S
C1673      C1674   1.399       .  A
C1673      C1678   1.404       .  A
C1673      H1689   1.083       .  S
C1674      C1675   1.403       .  A
C1674      H1690   1.083       .  S
C1675      C1685   1.405       .  A
C1675      C1676   1.412       .  A
C1676      C1682   1.410       .  A
C1676      C1677   1.412       .  A
C1677      C1679   1.412       .  A
C1677      C1678   1.410       .  A
C1678      C1686   1.403       .  A
C1679      C1688   1.403       .  A
C1679      C1680   1.403       .  A
C1680      C1681   1.398       .  A
C1680      H1691   1.083       .  S
C1681      C1682   1.403       .  A
C1681      H1692   1.083       .  S
C1682      C1683   1.401       .  A
C1683      C1684   1.408       .  A
C1683      H1693   1.084       .  S
C1684      C1685   1.407       .  A
C1685      H1694   1.084       .  S
C1686      C1687   1.410       .  A
C1686      H1695   1.084       .  S
C1687      C1688   1.407       .  A
C1688      H1696   1.084       .  S
C1697      C1698   1.398       .  A
C1697      C1702   1.403       .  A
C1697      H1713   1.084       .  S
C1698      C1699   1.403       .  A
C1698      H1714   1.083       .  S
C1699      C1709   1.402       .  A
C1699      C1700   1.412       .  A
C1700      C1706   1.410       .  A
C1700      C1701   1.411       .  A
C1701      C1703   1.413       .  A
C1701      C1702   1.409       .  A
C1702      C1710   1.399       .  A
C1703      C1712   1.404       .  A
C1703      C1704   1.403   1_565  A
C1704      C1705   1.399       .  A
C1704      H1715   1.083       .  S
C1705      C1706   1.404   1_545  A
C1705      H1716   1.084       .  S
C1706      C1707   1.400       .  A
C1707      C1708   1.408       .  A
C1707      H1717   1.084   1_565  S
C1708      C1709   1.407       .  A
C1709      H1718   1.083       .  S
C1710      C1711   1.409       .  A
C1710      H1719   1.084       .  S
C1711      C1712   1.407       .  A
C1712      H1720   1.084   1_565  S
C1721      C1722   1.398       .  A
C1721      C1726   1.403       .  A
C1721      H1737   1.083       .  S
C1722      C1723   1.403       .  A
C1722      H1738   1.084       .  S
C1723      C1733   1.401       .  A
C1723      C1724   1.412       .  A
C1724      C1730   1.412       .  A
C1724      C1725   1.409       .  A
C1725      C1727   1.412       .  A
C1725      C1726   1.412       .  A
C1726      C1734   1.401       .  A
C1727      C1736   1.401       .  A
C1727      C1728   1.403       .  A
C1728      C1729   1.398       .  A
C1728      H1739   1.084       .  S
C1729      C1730   1.403       .  A
C1729      H1740   1.084       .  S
C1730      C1731   1.400       .  A
C1731      C1732   1.404       .  A
C1731      H1741   1.084       .  S
C1732      C1733   1.405       .  A
C1733      H1742   1.085       .  S
C1734      C1735   1.404       .  A
C1734      H1743   1.084       .  S
C1735      C1736   1.403       .  A
C1736      H1744   1.085       .  S
C1745      C1746   1.398       .  A
C1745      C1750   1.402       .  A
C1745      H1761   1.083       .  S
C1746      C1747   1.404       .  A
C1746      H1762   1.083       .  S
C1747      C1757   1.397       .  A
C1747      C1748   1.408       .  A
C1748      C1754   1.415       .  A
C1748      C1749   1.411       .  A
C1749      C1751   1.408       .  A
C1749      C1750   1.414       .  A
C1750      C1758   1.404       .  A
C1751      C1760   1.399       .  A
C1751      C1752   1.405       .  A
C1752      C1753   1.399       .  A
C1752      H1763   1.083       .  S
C1753      C1754   1.403       .  A
C1753      H1764   1.084       .  S
C1754      C1755   1.407       .  A
C1755      C1756   1.403       .  A
C1755      H1765   1.084       .  S
C1756      C1757   1.409       .  A
C1757      H1766   1.085       .  S
C1758      C1759   1.404       .  A
C1758      H1767   1.084       .  S
C1759      C1760   1.410       .  A
C1760      H1768   1.084       .  S
C1769      C1770   1.397       .  A
C1769      C1774   1.402       .  A
C1769      H1785   1.083       .  S
C1770      C1771   1.403       .  A
C1770      H1786   1.084       .  S
C1771      C1781   1.396       .  A
C1771      C1772   1.408       .  A
C1772      C1778   1.413       .  A
C1772      C1773   1.411       .  A
C1773      C1775   1.409       .  A
C1773      C1774   1.413       .  A
C1774      C1782   1.403       .  A
C1775      C1784   1.403       .  A
C1775      C1776   1.405       .  A
C1776      C1777   1.400       .  A
C1776      H1787   1.084       .  S
C1777      C1778   1.403       .  A
C1777      H1788   1.083       .  S
C1778      C1779   1.407       .  A
C1779      C1780   1.407       .  A
C1779      H1789   1.083       .  S
C1780      C1781   1.409       .  A
C1781      H1790   1.084       .  S
C1782      C1783   1.406       .  A
C1782      H1791   1.083       .  S
C1783      C1784   1.411       .  A
C1784      H1792   1.084       .  S
C1793      C1794   1.399   1_554  A
C1793      C1798   1.404       .  A
C1793      H1809   1.083       .  S
C1794      C1795   1.403       .  A
C1794      H1810   1.083       .  S
C1795      C1805   1.406       .  A
C1795      C1796   1.412       .  A
C1796      C1802   1.410       .  A
C1796      C1797   1.414   1_556  A
C1797      C1799   1.412       .  A
C1797      C1798   1.410       .  A
C1798      C1806   1.403       .  A
C1799      C1808   1.407       .  A
C1799      C1800   1.404       .  A
C1800      C1801   1.400   1_554  A
C1800      H1811   1.083       .  S
C1801      C1802   1.404       .  A
C1801      H1812   1.083       .  S
C1802      C1803   1.404       .  A
C1803      C1804   1.410       .  A
C1803      H1813   1.084       .  S
C1804      C1805   1.408       .  A
C1805      H1814   1.084       .  S
C1806      C1807   1.409       .  A
C1806      H1815   1.083       .  S
C1807      C1808   1.409       .  A
C1808      H1816   1.084       .  S
C1817      C1818   1.398       .  A
C1817      C1822   1.402       .  A
C1817      H1833   1.083       .  S
C1818      C1819   1.403       .  A
C1818      H1834   1.084       .  S
C1819      C1829   1.399       .  A
C1819      C1820   1.410       .  A
C1820      C1826   1.414       .  A
C1820      C1821   1.409       .  A
C1821      C1823   1.410       .  A
C1821      C1822   1.414       .  A
C1822      C1830   1.403       .  A
C1823      C1832   1.398       .  A
C1823      C1824   1.404       .  A
C1824      C1825   1.398       .  A
C1824      H1835   1.084       .  S
C1825      C1826   1.403       .  A
C1825      H1836   1.083       .  S
C1826      C1827   1.403       .  A
C1827      C1828   1.403       .  A
C1827      H1837   1.084       .  S
C1828      C1829   1.405       .  A
C1829      H1838   1.085       .  S
C1830      C1831   1.402       .  A
C1830      H1839   1.084       .  S
C1831      C1832   1.406       .  A
C1832      H1840   1.085       .  S
C1841      C1842   1.399   1_556  A
C1841      C1846   1.404   1_565  A
C1841      H1857   1.084       .  S
C1842      C1843   1.404   1_565  A
C1842      H1858   1.084       .  S
C1843      C1853   1.404       .  A
C1843      C1844   1.411       .  A
C1844      C1850   1.411       .  A
C1844      C1845   1.412   1_554  A
C1845      C1847   1.412       .  A
C1845      C1846   1.411       .  A
C1846      C1854   1.402       .  A
C1847      C1856   1.403       .  A
C1847      C1848   1.403       .  A
C1848      C1849   1.398   1_556  A
C1848      H1859   1.084       .  S
C1849      C1850   1.403       .  A
C1849      H1860   1.084       .  S
C1850      C1851   1.402       .  A
C1851      C1852   1.407       .  A
C1851      H1861   1.084       .  S
C1852      C1853   1.408       .  A
C1853      H1862   1.084       .  S
C1854      C1855   1.408       .  A
C1854      H1863   1.084       .  S
C1855      C1856   1.407       .  A
C1856      H1864   1.084       .  S
C1865      C1866   1.399       .  A
C1865      C1870   1.404       .  A
C1865      H1881   1.083       .  S
C1866      C1867   1.403       .  A
C1866      H1882   1.084       .  S
C1867      C1877   1.404       .  A
C1867      C1868   1.413       .  A
C1868      C1874   1.409       .  A
C1868      C1869   1.410       .  A
C1869      C1871   1.413       .  A
C1869      C1870   1.409       .  A
C1870      C1878   1.400       .  A
C1871      C1880   1.402       .  A
C1871      C1872   1.402       .  A
C1872      C1873   1.397       .  A
C1872      H1883   1.084       .  S
C1873      C1874   1.403       .  A
C1873      H1884   1.083       .  S
C1874      C1875   1.397       .  A
C1875      C1876   1.408       .  A
C1875      H1885   1.084       .  S
C1876      C1877   1.405       .  A
C1877      H1886   1.084       .  S
C1878      C1879   1.410       .  A
C1878      H1887   1.084       .  S
C1879      C1880   1.405       .  A
C1880      H1888   1.084       .  S
C1889      C1890   1.397       .  A
C1889      C1894   1.404       .  A
C1889      H1905   1.083       .  S
C1890      C1891   1.402       .  A
C1890      H1906   1.083       .  S
C1891      C1901   1.404       .  A
C1891      C1892   1.415       .  A
C1892      C1898   1.407       .  A
C1892      C1893   1.410       .  A
C1893      C1895   1.416       .  A
C1893      C1894   1.407       .  A
C1894      C1902   1.396       .  A
C1895      C1904   1.406       .  A
C1895      C1896   1.402       .  A
C1896      C1897   1.399       .  A
C1896      H1907   1.084       .  S
C1897      C1898   1.405       .  A
C1897      H1908   1.083       .  S
C1898      C1899   1.398       .  A
C1899      C1900   1.412       .  A
C1899      H1909   1.084       .  S
C1900      C1901   1.404       .  A
C1901      H1910   1.084       .  S
C1902      C1903   1.410       .  A
C1902      H1911   1.085       .  S
C1903      C1904   1.403       .  A
C1904      H1912   1.084       .  S
C1913      C1914   1.401   1_545  A
C1913      C1918   1.404       .  A
C1913      H1929   1.083       .  S
C1914      C1915   1.404       .  A
C1914      H1930   1.083       .  S
C1915      C1925   1.404       .  A
C1915      C1916   1.411       .  A
C1916      C1922   1.413       .  A
C1916      C1917   1.412   1_565  A
C1917      C1919   1.410       .  A
C1917      C1918   1.413       .  A
C1918      C1926   1.408       .  A
C1919      C1928   1.399       .  A
C1919      C1920   1.403   1_545  A
C1920      C1921   1.398       .  A
C1920      H1931   1.084       .  S
C1921      C1922   1.403       .  A
C1921      H1932   1.083       .  S
C1922      C1923   1.402       .  A
C1923      C1924   1.404       .  A
C1923      H1933   1.084       .  S
C1924      C1925   1.406       .  A
C1925      H1934   1.084       .  S
C1926      C1927   1.407       .  A
C1926      H1935   1.084       .  S
C1927      C1928   1.407       .  A
C1928      H1936   1.084       .  S
C1937      C1938   1.402   1_554  A
C1937      C1942   1.404       .  A
C1937      H1953   1.083       .  S
C1938      C1939   1.405       .  A
C1938      H1954   1.083       .  S
C1939      C1949   1.406       .  A
C1939      C1940   1.412       .  A
C1940      C1946   1.412       .  A
C1940      C1941   1.411   1_556  A
C1941      C1943   1.411       .  A
C1941      C1942   1.413       .  A
C1942      C1950   1.407       .  A
C1943      C1952   1.398       .  A
C1943      C1944   1.402       .  A
C1944      C1945   1.396   1_554  A
C1944      H1955   1.084       .  S
C1945      C1946   1.402       .  A
C1945      H1956   1.084       .  S
C1946      C1947   1.400       .  A
C1947      C1948   1.403       .  A
C1947      H1957   1.085       .  S
C1948      C1949   1.407       .  A
C1949      H1958   1.084       .  S
C1950      C1951   1.407       .  A
C1950      H1959   1.084       .  S
C1951      C1952   1.404       .  A
C1952      H1960   1.085       .  S
C1961      C1962   1.400   1_455  A
C1961      C1966   1.403       .  A
C1961      H1977   1.085       .  S
C1962      C1963   1.405       .  A
C1962      H1978   1.082       .  S
C1963      C1973   1.401       .  A
C1963      C1964   1.409       .  A
C1964      C1970   1.413   1_545  A
C1964      C1965   1.411   1_655  A
C1965      C1967   1.408   1_545  A
C1965      C1966   1.414       .  A
C1966      C1974   1.407       .  A
C1967      C1976   1.397   1_565  A
C1967      C1968   1.404       .  A
C1968      C1969   1.397   1_455  A
C1968      H1979   1.083       .  S
C1969      C1970   1.402       .  A
C1969      H1980   1.085       .  S
C1970      C1971   1.402       .  A
C1971      C1972   1.405       .  A
C1971      H1981   1.085       .  S
C1972      C1973   1.410   1_565  A
C1973      H1982   1.083       .  S
C1974      C1975   1.407       .  A
C1974      H1983   1.085       .  S
C1975      C1976   1.410       .  A
C1976      H1984   1.083   1_545  S
C1985      C1986   1.400   1_554  A
C1985      C1990   1.404       .  A
C1985      H2001   1.083       .  S
C1986      C1987   1.404       .  A
C1986      H2002   1.084       .  S
C1987      C1997   1.405       .  A
C1987      C1988   1.412       .  A
C1988      C1994   1.411       .  A
C1988      C1989   1.412   1_556  A
C1989      C1991   1.412       .  A
C1989      C1990   1.411       .  A
C1990      C1998   1.404       .  A
C1991      C2000   1.403       .  A
C1991      C1992   1.403       .  A
C1992      C1993   1.398   1_554  A
C1992      H2003   1.083       .  S
C1993      C1994   1.403       .  A
C1993      H2004   1.083       .  S
C1994      C1995   1.401       .  A
C1995      C1996   1.404       .  A
C1995      H2005   1.084       .  S
C1996      C1997   1.406       .  A
C1997      H2006   1.084       .  S
C1998      C1999   1.406       .  A
C1998      H2007   1.084       .  S
C1999      C2000   1.404       .  A
C2000      H2008   1.084       .  S
C2009      C2010   1.400       .  A
C2009      C2014   1.405       .  A
C2009      H2025   1.083       .  S
C2010      C2011   1.403       .  A
C2010      H2026   1.083       .  S
C2011      C2021   1.407       .  A
C2011      C2012   1.414       .  A
C2012      C2018   1.410       .  A
C2012      C2013   1.414       .  A
C2013      C2015   1.413       .  A
C2013      C2014   1.410       .  A
C2014      C2022   1.404       .  A
C2015      C2024   1.406       .  A
C2015      C2016   1.404       .  A
C2016      C2017   1.399       .  A
C2016      H2027   1.083       .  S
C2017      C2018   1.404       .  A
C2017      H2028   1.084       .  S
C2018      C2019   1.402       .  A
C2019      C2020   1.405       .  A
C2019      H2029   1.085       .  S
C2020      C2021   1.404       .  A
C2021      H2030   1.084       .  S
C2022      C2023   1.410       .  A
C2022      H2031   1.084       .  S
C2023      C2024   1.407       .  A
C2024      H2032   1.084       .  S
C2033      C2034   1.400       .  A
C2033      C2038   1.404       .  A
C2033      H2049   1.083       .  S
C2034      C2035   1.403       .  A
C2034      H2050   1.084       .  S
C2035      C2045   1.407       .  A
C2035      C2036   1.414       .  A
C2036      C2042   1.411       .  A
C2036      C2037   1.414       .  A
C2037      C2039   1.413       .  A
C2037      C2038   1.410       .  A
C2038      C2046   1.404       .  A
C2039      C2048   1.408       .  A
C2039      C2040   1.404       .  A
C2040      C2041   1.401       .  A
C2040      H2051   1.084       .  S
C2041      C2042   1.404       .  A
C2041      H2052   1.083       .  S
C2042      C2043   1.404       .  A
C2043      C2044   1.406       .  A
C2043      H2053   1.084       .  S
C2044      C2045   1.404       .  A
C2045      H2054   1.084       .  S
C2046      C2047   1.410       .  A
C2046      H2055   1.083       .  S
C2047      C2048   1.409       .  A
C2048      H2056   1.084       .  S
C2057      C2058   1.397   1_655  A
C2057      C2062   1.404       .  A
C2057      H2073   1.084       .  S
C2058      C2059   1.402       .  A
C2058      H2074   1.084       .  S
C2059      C2069   1.404       .  A
C2059      C2060   1.415       .  A
C2060      C2066   1.410       .  A
C2060      C2061   1.414   1_455  A
C2061      C2063   1.414       .  A
C2061      C2062   1.408       .  A
C2062      C2070   1.399       .  A
C2063      C2072   1.412       .  A
C2063      C2064   1.405       .  A
C2064      C2065   1.403   1_655  A
C2064      H2075   1.084       .  S
C2065      C2066   1.406       .  A
C2065      H2076   1.083       .  S
C2066      C2067   1.406       .  A
C2067      C2068   1.408       .  A
C2067      H2077   1.085       .  S
C2068      C2069   1.401       .  A
C2069      H2078   1.085       .  S
C2070      C2071   1.410       .  A
C2070      H2079   1.084       .  S
C2071      C2072   1.409       .  A
C2072      H2080   1.084       .  S
C2081      C2082   1.402       .  A
C2081      C2086   1.405       .  A
C2081      H2097   1.083       .  S
C2082      C2083   1.404       .  A
C2082      H2098   1.084       .  S
C2083      C2093   1.406       .  A
C2083      C2084   1.412       .  A
C2084      C2090   1.413       .  A
C2084      C2085   1.413       .  A
C2085      C2087   1.410       .  A
C2085      C2086   1.412       .  A
C2086      C2094   1.408       .  A
C2087      C2096   1.401       .  A
C2087      C2088   1.403       .  A
C2088      C2089   1.398       .  A
C2088      H2099   1.084       .  S
C2089      C2090   1.402       .  A
C2089      H2100   1.083       .  S
C2090      C2091   1.402       .  A
C2091      C2092   1.401       .  A
C2091      H2101   1.084       .  S
C2092      C2093   1.405       .  A
C2093      H2102   1.084       .  S
C2094      C2095   1.409       .  A
C2094      H2103   1.084       .  S
C2095      C2096   1.408       .  A
C2096      H2104   1.084       .  S
C2105      C2106   1.401       .  A
C2105      C2110   1.405       .  A
C2105      H2121   1.084       .  S
C2106      C2107   1.404   1_455  A
C2106      H2122   1.084   1_455  S
C2107      C2117   1.407       .  A
C2107      C2108   1.414       .  A
C2108      C2114   1.410       .  A
C2108      C2109   1.412   1_655  A
C2109      C2111   1.414       .  A
C2109      C2110   1.409       .  A
C2110      C2118   1.403       .  A
C2111      C2120   1.405       .  A
C2111      C2112   1.402       .  A
C2112      C2113   1.398   1_455  A
C2112      H2123   1.084       .  S
C2113      C2114   1.403       .  A
C2113      H2124   1.084       .  S
C2114      C2115   1.400       .  A
C2115      C2116   1.405       .  A
C2115      H2125   1.085       .  S
C2116      C2117   1.406       .  A
C2117      H2126   1.084       .  S
C2118      C2119   1.409       .  A
C2118      H2127   1.085       .  S
C2119      C2120   1.403       .  A
C2120      H2128   1.084       .  S
C2129      C2130   1.399       .  A
C2129      C2134   1.403       .  A
C2129      H2145   1.083       .  S
C2130      C2131   1.403       .  A
C2130      H2146   1.084       .  S
C2131      C2141   1.403       .  A
C2131      C2132   1.412       .  A
C2132      C2138   1.412       .  A
C2132      C2133   1.412       .  A
C2133      C2135   1.412       .  A
C2133      C2134   1.412       .  A
C2134      C2142   1.403       .  A
C2135      C2144   1.405       .  A
C2135      C2136   1.404       .  A
C2136      C2137   1.400       .  A
C2136      H2147   1.084       .  S
C2137      C2138   1.404       .  A
C2137      H2148   1.083       .  S
C2138      C2139   1.405       .  A
C2139      C2140   1.407       .  A
C2139      H2149   1.084       .  S
C2140      C2141   1.405       .  A
C2141      H2150   1.085       .  S
C2142      C2143   1.404       .  A
C2142      H2151   1.084       .  S
C2143      C2144   1.405       .  A
C2144      H2152   1.085       .  S
C2153      C2154   1.399       .  A
C2153      C2158   1.404   1_565  A
C2153      H2169   1.084       .  S
C2154      C2155   1.404   1_565  A
C2154      H2170   1.084       .  S
C2155      C2165   1.404       .  A
C2155      C2156   1.411       .  A
C2156      C2162   1.411       .  A
C2156      C2157   1.412       .  A
C2157      C2159   1.411       .  A
C2157      C2158   1.411       .  A
C2158      C2166   1.404       .  A
C2159      C2168   1.402       .  A
C2159      C2160   1.403       .  A
C2160      C2161   1.399       .  A
C2160      H2171   1.084       .  S
C2161      C2162   1.404       .  A
C2161      H2172   1.084       .  S
C2162      C2163   1.403       .  A
C2163      C2164   1.409       .  A
C2163      H2173   1.084       .  S
C2164      C2165   1.408       .  A
C2165      H2174   1.084   1_545  S
C2166      C2167   1.408       .  A
C2166      H2175   1.084       .  S
C2167      C2168   1.408       .  A
C2168      H2176   1.084       .  S
C2177      C2178   1.397       .  A
C2177      C2182   1.402       .  A
C2177      H2193   1.084       .  S
C2178      C2179   1.403       .  A
C2178      H2194   1.083       .  S
C2179      C2189   1.397       .  A
C2179      C2180   1.409       .  A
C2180      C2186   1.413       .  A
C2180      C2181   1.410       .  A
C2181      C2183   1.409       .  A
C2181      C2182   1.413       .  A
C2182      C2190   1.401       .  A
C2183      C2192   1.401       .  A
C2183      C2184   1.404       .  A
C2184      C2185   1.399       .  A
C2184      H2195   1.083       .  S
C2185      C2186   1.403       .  A
C2185      H2196   1.083       .  S
C2186      C2187   1.404       .  A
C2187      C2188   1.405       .  A
C2187      H2197   1.084       .  S
C2188      C2189   1.407       .  A
C2189      H2198   1.084       .  S
C2190      C2191   1.405       .  A
C2190      H2199   1.084       .  S
C2191      C2192   1.410       .  A
C2192      H2200   1.084       .  S
C2201      C2202   1.397       .  A
C2201      C2206   1.403       .  A
C2201      H2217   1.084       .  S
C2202      C2203   1.402       .  A
C2202      H2218   1.083       .  S
C2203      C2213   1.404       .  A
C2203      C2204   1.414       .  A
C2204      C2210   1.408       .  A
C2204      C2205   1.411       .  A
C2205      C2207   1.414       .  A
C2205      C2206   1.408       .  A
C2206      C2214   1.397       .  A
C2207      C2216   1.406       .  A
C2207      C2208   1.403       .  A
C2208      C2209   1.399       .  A
C2208      H2219   1.083       .  S
C2209      C2210   1.405       .  A
C2209      H2220   1.084       .  S
C2210      C2211   1.400       .  A
C2211      C2212   1.412       .  A
C2211      H2221   1.084       .  S
C2212      C2213   1.404       .  A
C2213      H2222   1.084       .  S
C2214      C2215   1.407       .  A
C2214      H2223   1.085       .  S
C2215      C2216   1.406       .  A
C2216      H2224   1.084       .  S
C2225      C2226   1.397   1_655  A
C2225      C2230   1.402       .  A
C2225      H2241   1.084       .  S
C2226      C2227   1.403       .  A
C2226      H2242   1.084       .  S
C2227      C2237   1.401   1_545  A
C2227      C2228   1.411       .  A
C2228      C2234   1.412   1_545  A
C2228      C2229   1.413   1_455  A
C2229      C2231   1.413       .  A
C2229      C2230   1.411       .  A
C2230      C2238   1.400       .  A
C2231      C2240   1.409       .  A
C2231      C2232   1.405       .  A
C2232      C2233   1.402   1_655  A
C2232      H2243   1.084       .  S
C2233      C2234   1.405   1_545  A
C2233      H2244   1.084   1_545  S
C2234      C2235   1.408       .  A
C2235      C2236   1.408       .  A
C2235      H2245   1.084       .  S
C2236      C2237   1.406       .  A
C2237      H2246   1.085       .  S
C2238      C2239   1.404       .  A
C2238      H2247   1.085       .  S
C2239      C2240   1.407       .  A
C2240      H2248   1.084       .  S
C2249      C2250   1.401       .  A
C2249      C2254   1.404       .  A
C2249      H2265   1.084       .  S
C2250      C2251   1.405       .  A
C2250      H2266   1.083       .  S
C2251      C2261   1.405   1_565  A
C2251      C2252   1.410   1_565  A
C2252      C2258   1.412       .  A
C2252      C2253   1.413       .  A
C2253      C2255   1.409       .  A
C2253      C2254   1.413   1_545  A
C2254      C2262   1.407       .  A
C2255      C2264   1.399       .  A
C2255      C2256   1.403       .  A
C2256      C2257   1.397       .  A
C2256      H2267   1.083       .  S
C2257      C2258   1.403       .  A
C2257      H2268   1.084       .  S
C2258      C2259   1.403       .  A
C2259      C2260   1.407       .  A
C2259      H2269   1.084       .  S
C2260      C2261   1.411       .  A
C2261      H2270   1.083   1_545  S
C2262      C2263   1.408       .  A
C2262      H2271   1.084       .  S
C2263      C2264   1.409   1_565  A
C2264      H2272   1.084       .  S
C2273      C2274   1.399       .  A
C2273      C2278   1.404       .  A
C2273      H2289   1.083       .  S
C2274      C2275   1.404       .  A
C2274      H2290   1.084       .  S
C2275      C2285   1.404       .  A
C2275      C2276   1.413       .  A
C2276      C2282   1.410       .  A
C2276      C2277   1.410       .  A
C2277      C2279   1.413       .  A
C2277      C2278   1.411       .  A
C2278      C2286   1.402       .  A
C2279      C2288   1.401       .  A
C2279      C2280   1.402       .  A
C2280      C2281   1.397       .  A
C2280      H2291   1.083       .  S
C2281      C2282   1.403       .  A
C2281      H2292   1.084       .  S
C2282      C2283   1.399       .  A
C2283      C2284   1.406       .  A
C2283      H2293   1.084       .  S
C2284      C2285   1.406       .  A
C2285      H2294   1.084       .  S
C2286      C2287   1.405       .  A
C2286      H2295   1.084       .  S
C2287      C2288   1.402       .  A
C2288      H2296   1.084       .  S
C2297      C2298   1.398       .  A
C2297      C2302   1.404       .  A
C2297      H2313   1.084       .  S
C2298      C2299   1.402       .  A
C2298      H2314   1.084       .  S
C2299      C2309   1.405       .  A
C2299      C2300   1.415       .  A
C2300      C2306   1.409       .  A
C2300      C2301   1.412       .  A
C2301      C2303   1.415       .  A
C2301      C2302   1.408       .  A
C2302      C2310   1.398       .  A
C2303      C2312   1.408       .  A
C2303      C2304   1.403       .  A
C2304      C2305   1.400       .  A
C2304      H2315   1.084       .  S
C2305      C2306   1.404       .  A
C2305      H2316   1.084       .  S
C2306      C2307   1.402       .  A
C2307      C2308   1.406       .  A
C2307      H2317   1.085       .  S
C2308      C2309   1.402       .  A
C2309      H2318   1.084       .  S
C2310      C2311   1.410       .  A
C2310      H2319   1.084       .  S
C2311      C2312   1.405       .  A
C2312      H2320   1.084       .  S
C2321      C2322   1.399       .  A
C2321      C2326   1.403       .  A
C2321      H2337   1.083       .  S
C2322      C2323   1.403       .  A
C2322      H2338   1.083       .  S
C2323      C2333   1.404       .  A
C2323      C2324   1.412       .  A
C2324      C2330   1.411       .  A
C2324      C2325   1.413       .  A
C2325      C2327   1.412       .  A
C2325      C2326   1.412       .  A
C2326      C2334   1.404       .  A
C2327      C2336   1.405       .  A
C2327      C2328   1.404       .  A
C2328      C2329   1.400       .  A
C2328      H2339   1.083       .  S
C2329      C2330   1.404       .  A
C2329      H2340   1.084       .  S
C2330      C2331   1.404       .  A
C2331      C2332   1.408       .  A
C2331      H2341   1.084       .  S
C2332      C2333   1.406       .  A
C2333      H2342   1.084       .  S
C2334      C2335   1.406       .  A
C2334      H2343   1.084       .  S
C2335      C2336   1.408       .  A
C2336      H2344   1.084       .  S
C2345      C2346   1.399       .  A
C2345      C2350   1.404       .  A
C2345      H2361   1.083       .  S
C2346      C2347   1.403       .  A
C2346      H2362   1.084       .  S
C2347      C2357   1.404       .  A
C2347      C2348   1.413       .  A
C2348      C2354   1.409       .  A
C2348      C2349   1.411       .  A
C2349      C2351   1.412       .  A
C2349      C2350   1.410       .  A
C2350      C2358   1.402       .  A
C2351      C2360   1.403       .  A
C2351      C2352   1.403       .  A
C2352      C2353   1.398       .  A
C2352      H2363   1.084       .  S
C2353      C2354   1.404       .  A
C2353      H2364   1.083       .  S
C2354      C2355   1.399       .  A
C2355      C2356   1.410       .  A
C2355      H2365   1.084       .  S
C2356      C2357   1.406       .  A
C2357      H2366   1.084       .  S
C2358      C2359   1.408       .  A
C2358      H2367   1.084       .  S
C2359      C2360   1.406       .  A
C2360      H2368   1.084       .  S
C2369      C2370   1.398       .  A
C2369      C2374   1.402       .  A
C2369      H2385   1.083       .  S
C2370      C2371   1.404       .  A
C2370      H2386   1.084       .  S
C2371      C2381   1.399   1_545  A
C2371      C2372   1.408       .  A
C2372      C2378   1.413       .  A
C2372      C2373   1.410       .  A
C2373      C2375   1.408       .  A
C2373      C2374   1.414       .  A
C2374      C2382   1.405       .  A
C2375      C2384   1.398       .  A
C2375      C2376   1.404       .  A
C2376      C2377   1.398       .  A
C2376      H2387   1.084       .  S
C2377      C2378   1.403       .  A
C2377      H2388   1.083       .  S
C2378      C2379   1.404   1_545  A
C2379      C2380   1.406       .  A
C2379      H2389   1.083       .  S
C2380      C2381   1.409       .  A
C2381      H2390   1.084       .  S
C2382      C2383   1.403       .  A
C2382      H2391   1.084       .  S
C2383      C2384   1.409       .  A
C2384      H2392   1.085       .  S
C2393      C2394   1.397       .  A
C2393      C2398   1.403       .  A
C2393      H2409   1.084       .  S
C2394      C2395   1.403       .  A
C2394      H2410   1.084       .  S
C2395      C2405   1.402       .  A
C2395      C2396   1.411       .  A
C2396      C2402   1.412       .  A
C2396      C2397   1.415       .  A
C2397      C2399   1.413       .  A
C2397      C2398   1.411       .  A
C2398      C2406   1.401       .  A
C2399      C2408   1.411       .  A
C2399      C2400   1.405       .  A
C2400      C2401   1.403       .  A
C2400      H2411   1.084       .  S
C2401      C2402   1.405       .  A
C2401      H2412   1.083       .  S
C2402      C2403   1.410       .  A
C2403      C2404   1.408       .  A
C2403      H2413   1.084       .  S
C2404      C2405   1.406       .  A
C2405      H2414   1.085       .  S
C2406      C2407   1.407       .  A
C2406      H2415   1.085       .  S
C2407      C2408   1.409       .  A
C2408      H2416   1.084       .  S
C2417      C2418   1.400   1_554  A
C2417      C2422   1.404       .  A
C2417      H2433   1.084       .  S
C2418      C2419   1.404       .  A
C2418      H2434   1.083       .  S
C2419      C2429   1.404       .  A
C2419      C2420   1.411       .  A
C2420      C2426   1.411       .  A
C2420      C2421   1.414   1_556  A
C2421      C2423   1.411       .  A
C2421      C2422   1.411       .  A
C2422      C2430   1.406       .  A
C2423      C2432   1.404       .  A
C2423      C2424   1.404       .  A
C2424      C2425   1.399   1_554  A
C2424      H2435   1.083       .  S
C2425      C2426   1.404       .  A
C2425      H2436   1.084       .  S
C2426      C2427   1.404       .  A
C2427      C2428   1.408       .  A
C2427      H2437   1.084       .  S
C2428      C2429   1.409       .  A
C2429      H2438   1.083       .  S
C2430      C2431   1.409       .  A
C2430      H2439   1.084       .  S
C2431      C2432   1.410       .  A
C2432      H2440   1.083       .  S
C2441      C2442   1.401       .  A
C2441      C2446   1.404       .  A
C2441      H2457   1.083       .  S
C2442      C2443   1.404       .  A
C2442      H2458   1.084       .  S
C2443      C2453   1.406       .  A
C2443      C2444   1.412       .  A
C2444      C2450   1.412       .  A
C2444      C2445   1.415       .  A
C2445      C2447   1.411       .  A
C2445      C2446   1.413       .  A
C2446      C2454   1.408       .  A
C2447      C2456   1.405       .  A
C2447      C2448   1.404       .  A
C2448      C2449   1.400       .  A
C2448      H2459   1.084       .  S
C2449      C2450   1.404       .  A
C2449      H2460   1.084       .  S
C2450      C2451   1.405       .  A
C2451      C2452   1.408       .  A
C2451      H2461   1.085       .  S
C2452      C2453   1.406       .  A
C2453      H2462   1.085       .  S
C2454      C2455   1.407       .  A
C2454      H2463   1.084       .  S
C2455      C2456   1.409       .  A
C2456      H2464   1.085       .  S
C2465      C2466   1.399       .  A
C2465      C2470   1.404       .  A
C2465      H2481   1.083       .  S
C2466      C2467   1.403       .  A
C2466      H2482   1.084       .  S
C2467      C2477   1.404       .  A
C2467      C2468   1.412       .  A
C2468      C2474   1.410       .  A
C2468      C2469   1.412       .  A
C2469      C2471   1.411       .  A
C2469      C2470   1.411       .  A
C2470      C2478   1.403       .  A
C2471      C2480   1.403       .  A
C2471      C2472   1.403       .  A
C2472      C2473   1.399       .  A
C2472      H2483   1.084       .  S
C2473      C2474   1.404       .  A
C2473      H2484   1.083       .  S
C2474      C2475   1.403       .  A
C2475      C2476   1.410       .  A
C2475      H2485   1.084       .  S
C2476      C2477   1.407       .  A
C2477      H2486   1.084       .  S
C2478      C2479   1.409       .  A
C2478      H2487   1.084       .  S
C2479      C2480   1.408       .  A
C2480      H2488   1.084       .  S
C2489      C2490   1.396   1_554  A
C2489      C2494   1.402       .  A
C2489      H2505   1.084       .  S
C2490      C2491   1.402       .  A
C2490      H2506   1.084       .  S
C2491      C2501   1.397       .  A
C2491      C2492   1.410       .  A
C2492      C2498   1.412       .  A
C2492      C2493   1.409   1_556  A
C2493      C2495   1.410       .  A
C2493      C2494   1.412       .  A
C2494      C2502   1.399       .  A
C2495      C2504   1.401       .  A
C2495      C2496   1.404       .  A
C2496      C2497   1.399   1_554  A
C2496      H2507   1.084       .  S
C2497      C2498   1.403       .  A
C2497      H2508   1.084       .  S
C2498      C2499   1.402       .  A
C2499      C2500   1.407       .  A
C2499      H2509   1.084       .  S
C2500      C2501   1.406       .  A
C2501      H2510   1.084       .  S
C2502      C2503   1.404       .  A
C2502      H2511   1.084       .  S
C2503      C2504   1.408       .  A
C2504      H2512   1.084       .  S
C2513      C2514   1.398       .  A
C2513      C2518   1.402   1_565  A
C2513      H2529   1.083       .  S
C2514      C2515   1.404       .  A
C2514      H2530   1.084       .  S
C2515      C2525   1.398       .  A
C2515      C2516   1.408       .  A
C2516      C2522   1.414       .  A
C2516      C2517   1.409       .  A
C2517      C2519   1.408   1_565  A
C2517      C2518   1.414   1_565  A
C2518      C2526   1.404       .  A
C2519      C2528   1.396       .  A
C2519      C2520   1.403   1_545  A
C2520      C2521   1.397       .  A
C2520      H2531   1.083       .  S
C2521      C2522   1.402       .  A
C2521      H2532   1.084       .  S
C2522      C2523   1.404       .  A
C2523      C2524   1.403       .  A
C2523      H2533   1.084       .  S
C2524      C2525   1.408       .  A
C2525      H2534   1.084       .  S
C2526      C2527   1.405       .  A
C2526      H2535   1.084       .  S
C2527      C2528   1.409       .  A
C2528      H2536   1.084       .  S
C2537      C2538   1.398       .  A
C2537      C2542   1.403       .  A
C2537      H2553   1.084       .  S
C2538      C2539   1.404       .  A
C2538      H2554   1.083       .  S
C2539      C2549   1.400       .  A
C2539      C2540   1.410       .  A
C2540      C2546   1.413       .  A
C2540      C2541   1.411       .  A
C2541      C2543   1.410       .  A
C2541      C2542   1.412       .  A
C2542      C2550   1.403       .  A
C2543      C2552   1.401       .  A
C2543      C2544   1.403       .  A
C2544      C2545   1.398       .  A
C2544      H2555   1.083       .  S
C2545      C2546   1.403       .  A
C2545      H2556   1.084       .  S
C2546      C2547   1.403       .  A
C2547      C2548   1.405       .  A
C2547      H2557   1.084       .  S
C2548      C2549   1.408       .  A
C2549      H2558   1.084       .  S
C2550      C2551   1.408       .  A
C2550      H2559   1.084       .  S
C2551      C2552   1.408       .  A
C2552      H2560   1.084       .  S
C2561      C2562   1.401       .  A
C2561      C2566   1.405       .  A
C2561      H2577   1.084       .  S
C2562      C2563   1.404       .  A
C2562      H2578   1.083       .  S
C2563      C2573   1.409       .  A
C2563      C2564   1.415       .  A
C2564      C2570   1.408       .  A
C2564      C2565   1.412       .  A
C2565      C2567   1.415       .  A
C2565      C2566   1.409       .  A
C2566      C2574   1.402       .  A
C2567      C2576   1.404       .  A
C2567      C2568   1.402       .  A
C2568      C2569   1.397       .  A
C2568      H2579   1.083       .  S
C2569      C2570   1.403       .  A
C2569      H2580   1.084       .  S
C2570      C2571   1.397       .  A
C2571      C2572   1.408       .  A
C2571      H2581   1.085       .  S
C2572      C2573   1.405       .  A
C2573      H2582   1.084       .  S
C2574      C2575   1.408       .  A
C2574      H2583   1.085       .  S
C2575      C2576   1.401       .  A
C2576      H2584   1.084       .  S
C2585      C2586   1.398       .  A
C2585      C2590   1.403       .  A
C2585      H2601   1.083       .  S
C2586      C2587   1.404       .  A
C2586      H2602   1.083       .  S
C2587      C2597   1.398       .  A
C2587      C2588   1.409       .  A
C2588      C2594   1.413       .  A
C2588      C2589   1.408       .  A
C2589      C2591   1.409       .  A
C2589      C2590   1.413       .  A
C2590      C2598   1.403       .  A
C2591      C2600   1.397       .  A
C2591      C2592   1.403       .  A
C2592      C2593   1.396       .  A
C2592      H2603   1.083       .  S
C2593      C2594   1.402       .  A
C2593      H2604   1.083       .  S
C2594      C2595   1.400       .  A
C2595      C2596   1.403       .  A
C2595      H2605   1.084       .  S
C2596      C2597   1.408       .  A
C2597      H2606   1.084       .  S
C2598      C2599   1.407       .  A
C2598      H2607   1.084       .  S
C2599      C2600   1.407       .  A
C2600      H2608   1.084       .  S
C2609      C2610   1.395       .  A
C2609      C2614   1.402       .  A
C2609      H2625   1.083       .  S
C2610      C2611   1.401       .  A
C2610      H2626   1.084       .  S
C2611      C2621   1.398       .  A
C2611      C2612   1.412       .  A
C2612      C2618   1.412       .  A
C2612      C2613   1.411       .  A
C2613      C2615   1.413       .  A
C2613      C2614   1.411       .  A
C2614      C2622   1.397       .  A
C2615      C2624   1.409       .  A
C2615      C2616   1.405       .  A
C2616      C2617   1.403       .  A
C2616      H2627   1.084       .  S
C2617      C2618   1.405       .  A
C2617      H2628   1.083       .  S
C2618      C2619   1.407       .  A
C2619      C2620   1.408       .  A
C2619      H2629   1.084       .  S
C2620      C2621   1.401       .  A
C2621      H2630   1.085       .  S
C2622      C2623   1.403       .  A
C2622      H2631   1.085       .  S
C2623      C2624   1.409       .  A
C2624      H2632   1.084       .  S
C2633      C2634   1.400       .  A
C2633      C2638   1.405       .  A
C2633      H2649   1.083       .  S
C2634      C2635   1.404       .  A
C2634      H2650   1.084       .  S
C2635      C2645   1.407       .  A
C2635      C2636   1.413       .  A
C2636      C2642   1.409       .  A
C2636      C2637   1.415       .  A
C2637      C2639   1.413       .  A
C2637      C2638   1.409       .  A
C2638      C2646   1.404       .  A
C2639      C2648   1.408       .  A
C2639      C2640   1.403       .  A
C2640      C2641   1.400       .  A
C2640      H2651   1.084       .  S
C2641      C2642   1.405       .  A
C2641      H2652   1.083       .  S
C2642      C2643   1.405       .  A
C2643      C2644   1.411       .  A
C2643      H2653   1.083       .  S
C2644      C2645   1.409       .  A
C2645      H2654   1.085       .  S
C2646      C2647   1.412       .  A
C2646      H2655   1.083       .  S
C2647      C2648   1.408       .  A
C2648      H2656   1.085       .  S
C2657      C2658   1.401       .  A
C2657      C2662   1.405       .  A
C2657      H2673   1.083       .  S
C2658      C2659   1.404       .  A
C2658      H2674   1.084       .  S
C2659      C2669   1.408       .  A
C2659      C2660   1.413       .  A
C2660      C2666   1.411       .  A
C2660      C2661   1.414       .  A
C2661      C2663   1.413       .  A
C2661      C2662   1.411       .  A
C2662      C2670   1.405       .  A
C2663      C2672   1.405       .  A
C2663      C2664   1.403       .  A
C2664      C2665   1.399       .  A
C2664      H2675   1.084       .  S
C2665      C2666   1.404       .  A
C2665      H2676   1.084       .  S
C2666      C2667   1.403       .  A
C2667      C2668   1.406       .  A
C2667      H2677   1.085       .  S
C2668      C2669   1.406       .  A
C2669      H2678   1.084       .  S
C2670      C2671   1.408       .  A
C2670      H2679   1.084       .  S
C2671      C2672   1.404       .  A
C2672      H2680   1.084       .  S
C2681      C2682   1.398       .  A
C2681      C2686   1.403       .  A
C2681      H2697   1.084       .  S
C2682      C2683   1.403       .  A
C2682      H2698   1.084       .  S
C2683      C2693   1.401       .  A
C2683      C2684   1.411       .  A
C2684      C2690   1.411       .  A
C2684      C2685   1.410       .  A
C2685      C2687   1.411       .  A
C2685      C2686   1.411       .  A
C2686      C2694   1.401       .  A
C2687      C2696   1.402       .  A
C2687      C2688   1.404       .  A
C2688      C2689   1.398       .  A
C2688      H2699   1.084       .  S
C2689      C2690   1.403       .  A
C2689      H2700   1.084       .  S
C2690      C2691   1.401       .  A
C2691      C2692   1.407       .  A
C2691      H2701   1.084       .  S
C2692      C2693   1.406       .  A
C2693      H2702   1.084       .  S
C2694      C2695   1.407       .  A
C2694      H2703   1.084       .  S
C2695      C2696   1.408       .  A
C2696      H2704   1.084       .  S
C2705      C2706   1.397       .  A
C2705      C2710   1.403   1_565  A
C2705      H2721   1.084   1_565  S
C2706      C2707   1.403       .  A
C2706      H2722   1.084       .  S
C2707      C2717   1.400       .  A
C2707      C2708   1.412       .  A
C2708      C2714   1.412       .  A
C2708      C2709   1.410       .  A
C2709      C2711   1.413   1_565  A
C2709      C2710   1.411   1_565  A
C2710      C2718   1.399       .  A
C2711      C2720   1.404       .  A
C2711      C2712   1.403   1_545  A
C2712      C2713   1.399       .  A
C2712      H2723   1.083       .  S
C2713      C2714   1.403       .  A
C2713      H2724   1.083       .  S
C2714      C2715   1.403       .  A
C2715      C2716   1.404       .  A
C2715      H2725   1.084       .  S
C2716      C2717   1.404       .  A
C2717      H2726   1.085       .  S
C2718      C2719   1.406       .  A
C2718      H2727   1.085       .  S
C2719      C2720   1.405       .  A
C2720      H2728   1.084       .  S
C2729      C2730   1.401       .  A
C2729      C2734   1.404       .  A
C2729      H2745   1.083       .  S
C2730      C2731   1.404       .  A
C2730      H2746   1.083       .  S
C2731      C2741   1.406       .  A
C2731      C2732   1.412       .  A
C2732      C2738   1.412       .  A
C2732      C2733   1.411       .  A
C2733      C2735   1.411       .  A
C2733      C2734   1.412       .  A
C2734      C2742   1.406       .  A
C2735      C2744   1.399       .  A
C2735      C2736   1.402       .  A
C2736      C2737   1.397       .  A
C2736      H2747   1.084       .  S
C2737      C2738   1.402       .  A
C2737      H2748   1.084       .  S
C2738      C2739   1.400       .  A
C2739      C2740   1.404       .  A
C2739      H2749   1.085       .  S
C2740      C2741   1.406       .  A
C2741      H2750   1.084       .  S
C2742      C2743   1.406       .  A
C2742      H2751   1.084       .  S
C2743      C2744   1.404       .  A
C2744      H2752   1.085       .  S
C2753      C2754   1.398       .  A
C2753      C2758   1.402       .  A
C2753      H2769   1.084       .  S
C2754      C2755   1.404       .  A
C2754      H2770   1.084       .  S
C2755      C2765   1.397       .  A
C2755      C2756   1.408       .  A
C2756      C2762   1.415       .  A
C2756      C2757   1.412       .  A
C2757      C2759   1.409       .  A
C2757      C2758   1.415       .  A
C2758      C2766   1.404       .  A
C2759      C2768   1.402       .  A
C2759      C2760   1.404       .  A
C2760      C2761   1.400       .  A
C2760      H2771   1.084       .  S
C2761      C2762   1.404       .  A
C2761      H2772   1.083       .  S
C2762      C2763   1.409       .  A
C2763      C2764   1.406       .  A
C2763      H2773   1.084       .  S
C2764      C2765   1.410       .  A
C2765      H2774   1.085       .  S
C2766      C2767   1.401       .  A
C2766      H2775   1.084       .  S
C2767      C2768   1.406       .  A
C2768      H2776   1.085       .  S
C2777      C2778   1.399       .  A
C2777      C2782   1.404       .  A
C2777      H2793   1.084       .  S
C2778      C2779   1.403       .  A
C2778      H2794   1.084       .  S
C2779      C2789   1.403       .  A
C2779      C2780   1.413       .  A
C2780      C2786   1.409       .  A
C2780      C2781   1.410       .  A
C2781      C2783   1.413       .  A
C2781      C2782   1.409       .  A
C2782      C2790   1.401       .  A
C2783      C2792   1.403       .  A
C2783      C2784   1.402       .  A
C2784      C2785   1.397       .  A
C2784      H2795   1.084       .  S
C2785      C2786   1.403       .  A
C2785      H2796   1.084       .  S
C2786      C2787   1.399       .  A
C2787      C2788   1.408       .  A
C2787      H2797   1.084       .  S
C2788      C2789   1.406       .  A
C2789      H2798   1.084       .  S
C2790      C2791   1.411       .  A
C2790      H2799   1.084       .  S
C2791      C2792   1.405       .  A
C2792      H2800   1.084       .  S
C2801      C2802   1.400   1_554  A
C2801      C2806   1.404       .  A
C2801      H2817   1.083       .  S
C2802      C2803   1.404       .  A
C2802      H2818   1.084       .  S
C2803      C2813   1.404       .  A
C2803      C2804   1.410       .  A
C2804      C2810   1.412       .  A
C2804      C2805   1.414   1_556  A
C2805      C2807   1.410       .  A
C2805      C2806   1.412       .  A
C2806      C2814   1.405       .  A
C2807      C2816   1.403       .  A
C2807      C2808   1.404       .  A
C2808      C2809   1.399   1_554  A
C2808      H2819   1.083       .  S
C2809      C2810   1.404       .  A
C2809      H2820   1.083       .  S
C2810      C2811   1.406       .  A
C2811      C2812   1.408       .  A
C2811      H2821   1.084       .  S
C2812      C2813   1.410       .  A
C2813      H2822   1.084       .  S
C2814      C2815   1.409       .  A
C2814      H2823   1.084       .  S
C2815      C2816   1.409       .  A
C2816      H2824   1.084       .  S
C2825      C2826   1.400       .  A
C2825      C2830   1.404       .  A
C2825      H2841   1.083       .  S
C2826      C2827   1.404       .  A
C2826      H2842   1.083       .  S
C2827      C2837   1.404       .  A
C2827      C2828   1.411       .  A
C2828      C2834   1.412       .  A
C2828      C2829   1.412       .  A
C2829      C2831   1.410       .  A
C2829      C2830   1.413       .  A
C2830      C2838   1.406       .  A
C2831      C2840   1.399       .  A
C2831      C2832   1.403       .  A
C2832      C2833   1.398       .  A
C2832      H2843   1.083       .  S
C2833      C2834   1.403       .  A
C2833      H2844   1.084       .  S
C2834      C2835   1.402       .  A
C2835      C2836   1.405       .  A
C2835      H2845   1.084       .  S
C2836      C2837   1.405       .  A
C2837      H2846   1.084       .  S
C2838      C2839   1.406       .  A
C2838      H2847   1.084       .  S
C2839      C2840   1.407       .  A
C2840      H2848   1.084       .  S
C2849      C2850   1.398       .  A
C2849      C2854   1.402       .  A
C2849      H2865   1.084       .  S
C2850      C2851   1.404       .  A
C2850      H2866   1.084       .  S
C2851      C2861   1.399       .  A
C2851      C2852   1.409       .  A
C2852      C2858   1.414       .  A
C2852      C2853   1.411       .  A
C2853      C2855   1.410       .  A
C2853      C2854   1.414       .  A
C2854      C2862   1.403       .  A
C2855      C2864   1.401       .  A
C2855      C2856   1.404       .  A
C2856      C2857   1.399       .  A
C2856      H2867   1.084       .  S
C2857      C2858   1.403       .  A
C2857      H2868   1.084       .  S
C2858      C2859   1.406       .  A
C2859      C2860   1.405       .  A
C2859      H2869   1.084       .  S
C2860      C2861   1.407       .  A
C2861      H2870   1.085       .  S
C2862      C2863   1.402       .  A
C2862      H2871   1.084       .  S
C2863      C2864   1.405       .  A
C2864      H2872   1.085       .  S
C2873      C2874   1.399       .  A
C2873      C2878   1.404       .  A
C2873      H2889   1.084       .  S
C2874      C2875   1.404       .  A
C2874      H2890   1.083       .  S
C2875      C2885   1.405       .  A
C2875      C2876   1.412       .  A
C2876      C2882   1.410       .  A
C2876      C2877   1.413       .  A
C2877      C2879   1.412       .  A
C2877      C2878   1.410       .  A
C2878      C2886   1.402       .  A
C2879      C2888   1.405       .  A
C2879      C2880   1.404       .  A
C2880      C2881   1.400       .  A
C2880      H2891   1.083       .  S
C2881      C2882   1.404       .  A
C2881      H2892   1.084       .  S
C2882      C2883   1.404       .  A
C2883      C2884   1.410       .  A
C2883      H2893   1.084       .  S
C2884      C2885   1.408       .  A
C2885      H2894   1.083       .  S
C2886      C2887   1.409       .  A
C2886      H2895   1.084       .  S
C2887      C2888   1.407       .  A
C2888      H2896   1.083       .  S
C2897      C2898   1.397   1_554  A
C2897      C2902   1.402       .  A
C2897      H2913   1.084       .  S
C2898      C2899   1.403       .  A
C2898      H2914   1.083       .  S
C2899      C2909   1.399       .  A
C2899      C2900   1.410       .  A
C2900      C2906   1.413       .  A
C2900      C2901   1.412   1_556  A
C2901      C2903   1.412       .  A
C2901      C2902   1.413       .  A
C2902      C2910   1.402       .  A
C2903      C2912   1.405       .  A
C2903      C2904   1.404       .  A
C2904      C2905   1.401   1_554  A
C2904      H2915   1.084       .  S
C2905      C2906   1.404       .  A
C2905      H2916   1.084       .  S
C2906      C2907   1.408       .  A
C2907      C2908   1.408       .  A
C2907      H2917   1.084       .  S
C2908      C2909   1.407       .  A
C2909      H2918   1.084       .  S
C2910      C2911   1.401       .  A
C2910      H2919   1.085       .  S
C2911      C2912   1.404       .  A
C2912      H2920   1.084       .  S
C2921      C2922   1.394       .  A
C2921      C2926   1.401       .  A
C2921      H2937   1.084       .  S
C2922      C2923   1.402       .  A
C2922      H2938   1.084       .  S
C2923      C2933   1.394       .  A
C2923      C2924   1.410       .  A
C2924      C2930   1.414       .  A
C2924      C2925   1.411       .  A
C2925      C2927   1.411       .  A
C2925      C2926   1.412       .  A
C2926      C2934   1.398       .  A
C2927      C2936   1.408       .  A
C2927      C2928   1.406       .  A
C2928      C2929   1.403       .  A
C2928      H2939   1.083       .  S
C2929      C2930   1.405       .  A
C2929      H2940   1.084       .  S
C2930      C2931   1.410       .  A
C2931      C2932   1.407       .  A
C2931      H2941   1.084       .  S
C2932      C2933   1.403       .  A
C2933      H2942   1.085       .  S
C2934      C2935   1.402       .  A
C2934      H2943   1.085       .  S
C2935      C2936   1.409       .  A
C2936      H2944   1.084       .  S
C2945      C2946   1.400       .  A
C2945      C2950   1.404       .  A
C2945      H2961   1.083       .  S
C2946      C2947   1.404       .  A
C2946      H2962   1.084       .  S
C2947      C2957   1.404       .  A
C2947      C2948   1.412       .  A
C2948      C2954   1.413       .  A
C2948      C2949   1.414       .  A
C2949      C2951   1.411       .  A
C2949      C2950   1.411       .  A
C2950      C2958   1.405   1_545  A
C2951      C2960   1.405   1_545  A
C2951      C2952   1.404       .  A
C2952      C2953   1.400       .  A
C2952      H2963   1.083       .  S
C2953      C2954   1.403       .  A
C2953      H2964   1.084       .  S
C2954      C2955   1.406       .  A
C2955      C2956   1.404       .  A
C2955      H2965   1.084       .  S
C2956      C2957   1.404       .  A
C2957      H2966   1.085       .  S
C2958      C2959   1.409       .  A
C2958      H2967   1.084       .  S
C2959      C2960   1.410       .  A
C2960      H2968   1.084       .  S
C2969      C2970   1.400       .  A
C2969      C2974   1.404       .  A
C2969      H2985   1.084       .  S
C2970      C2971   1.404       .  A
C2970      H2986   1.083       .  S
C2971      C2981   1.408       .  A
C2971      C2972   1.413       .  A
C2972      C2978   1.410       .  A
C2972      C2973   1.416       .  A
C2973      C2975   1.413       .  A
C2973      C2974   1.411       .  A
C2974      C2982   1.405       .  A
C2975      C2984   1.409       .  A
C2975      C2976   1.404       .  A
C2976      C2977   1.402       .  A
C2976      H2987   1.084       .  S
C2977      C2978   1.406       .  A
C2977      H2988   1.083       .  S
C2978      C2979   1.407       .  A
C2979      C2980   1.413       .  A
C2979      H2989   1.084       .  S
C2980      C2981   1.407       .  A
C2981      H2990   1.084       .  S
C2982      C2983   1.405       .  A
C2982      H2991   1.085       .  S
C2983      C2984   1.407       .  A
C2984      H2992   1.084       .  S
C2993      C2994   1.399       .  A
C2993      C2998   1.403       .  A
C2993      H3009   1.085       .  S
C2994      C2995   1.404       .  A
C2994      H3010   1.083       .  S
C2995      C3005   1.402       .  A
C2995      C2996   1.409       .  A
C2996      C3002   1.413       .  A
C2996      C2997   1.415       .  A
C2997      C2999   1.410       .  A
C2997      C2998   1.412       .  A
C2998      C3006   1.404       .  A
C2999      C3008   1.406       .  A
C2999      C3000   1.405       .  A
C3000      C3001   1.401       .  A
C3000      H3011   1.083       .  S
C3001      C3002   1.404       .  A
C3001      H3012   1.084       .  S
C3002      C3003   1.408       .  A
C3003      C3004   1.409       .  A
C3003      H3013   1.085       .  S
C3004      C3005   1.411       .  A
C3005      H3014   1.083       .  S
C3006      C3007   1.407       .  A
C3006      H3015   1.085       .  S
C3007      C3008   1.412       .  A
C3008      H3016   1.083       .  S
C3017      C3018   1.399       .  A
C3017      C3022   1.403       .  A
C3017      H3033   1.084       .  S
C3018      C3019   1.404       .  A
C3018      H3034   1.083       .  S
C3019      C3029   1.401       .  A
C3019      C3020   1.409       .  A
C3020      C3026   1.413       .  A
C3020      C3021   1.411       .  A
C3021      C3023   1.409       .  A
C3021      C3022   1.413       .  A
C3022      C3030   1.405       .  A
C3023      C3032   1.399       .  A
C3023      C3024   1.404       .  A
C3024      C3025   1.398       .  A
C3024      H3035   1.083       .  S
C3025      C3026   1.403       .  A
C3025      H3036   1.084       .  S
C3026      C3027   1.403       .  A
C3027      C3028   1.406       .  A
C3027      H3037   1.084       .  S
C3028      C3029   1.409       .  A
C3029      H3038   1.084       .  S
C3030      C3031   1.407       .  A
C3030      H3039   1.084       .  S
C3031      C3032   1.409       .  A
C3032      H3040   1.084       .  S
