geometry optimzed in LAMMPS
_audit_creation_date              2020-12-01 
_audit_creation_method            'lammps2cif' 
_symmetry_space_group_name_H-M    'P1' 
_symmetry_Int_Tables_number       1 
_symmetry_cell_setting            triclinic 
loop_ 
_symmetry_equiv_pos_as_xyz 
  x,y,z 
_cell_length_a                    42.54696108 
_cell_length_b                    35.342240688099054 
_cell_length_c                    40.40100620129528 
_cell_angle_alpha                 90.27271838591749 
_cell_angle_beta                  90.11133384610493 
_cell_angle_gamma                 89.80977795289236 
loop_ 
_atom_site_label 
_atom_site_type_symbol 
_atom_site_fract_x 
_atom_site_fract_y 
_atom_site_fract_z 
_atom_site_charge 
O1          O  0.33583409  0.87324801  0.35513192    -0.85600
O2          O  0.38719885  0.82639966  0.36208652    -0.82600
C3          C  0.37593545  0.79315017  0.36142629     0.97900
O4          O  0.36358384  0.78068965  0.33527027    -0.82600
O5          O  0.33367975  0.77871691  0.27498980    -0.85300
C6          C  0.30599432  0.79125454  0.27881180     1.02400
O7          O  0.30169520  0.82422737  0.28965680    -0.78000
O8          O  0.31161654  0.89579484  0.31222286    -0.78200
C9          C  0.31119749  0.88683351  0.34257790     1.02400
O10         O  0.37110254  0.92232593  0.30991074    -0.85600
O11         O  0.41984780  0.87060440  0.31310318    -0.82600
C12         C  0.43469688  0.84023731  0.30785720     0.97900
O13         O  0.41986136  0.80925164  0.30535342    -0.82600
O14         O  0.38788797  0.81292464  0.24624813    -0.85300
C15         C  0.36638333  0.81798150  0.22538443     1.02400
O16         O  0.34148120  0.83521507  0.23392590    -0.78100
O17         O  0.35759700  0.90494921  0.25993070    -0.78200
C18         C  0.36816701  0.92988867  0.27926614     1.02400
Cr19       Cr  0.37727873  0.87153180  0.33274596     1.93700
Cr20       Cr  0.37532124  0.79879173  0.29128001     1.93200
Cr21       Cr  0.33055310  0.86401116  0.27565953     1.39100
O22         O  0.36131710  0.84481129  0.29979499    -1.23300
O23         O  0.63326228  0.92116385  0.31006804    -0.85600
O24         O  0.58576887  0.86695846  0.31367150    -0.82600
C25         C  0.57189596  0.83562168  0.31001919     0.97900
O26         O  0.58784889  0.80527594  0.30901715    -0.82600
O27         O  0.61905647  0.80871561  0.25007642    -0.85300
C28         C  0.63976486  0.81354563  0.22838180     1.02400
O29         O  0.66453476  0.83137497  0.23629947    -0.78000
O30         O  0.64573851  0.90054672  0.26077956    -0.78200
C31         C  0.63714521  0.92713829  0.27921031     1.02400
O32         O  0.66912783  0.87499080  0.35725384    -0.85600
O33         O  0.61920123  0.82566024  0.36432017    -0.82600
C34         C  0.63139790  0.79272740  0.36497751     0.97900
O35         O  0.64539988  0.78040505  0.33968984    -0.82600
O36         O  0.67527074  0.77763066  0.27895206    -0.85300
C37         C  0.70232497  0.79206702  0.28292755     1.02400
O38         O  0.70492866  0.82528386  0.29322679    -0.78100
O39         O  0.69285583  0.89654418  0.31364575    -0.78200
C40         C  0.69307084  0.88997438  0.34459769     1.02400
Cr41       Cr  0.62799759  0.87054157  0.33418491     1.93700
Cr42       Cr  0.63276876  0.79626762  0.29515020     1.93200
Cr43       Cr  0.67473379  0.86244997  0.27763388     1.39100
O44         O  0.64505306  0.84304180  0.30240852    -1.23300
O45         O  0.66986106  0.63208524  0.10556888    -0.85600
O46         O  0.62087568  0.68133927  0.11472187    -0.82600
C47         C  0.63299560  0.71413826  0.11326694     0.97900
O48         O  0.64443309  0.72555008  0.08643712    -0.82600
O49         O  0.66810217  0.72566118  0.02318214    -0.85300
C50         C  0.69570366  0.71220646  0.02440631     1.02400
O51         O  0.70061832  0.67940835  0.03475275    -0.78000
O52         O  0.69221726  0.60953215  0.06101465    -0.78200
C53         C  0.69334175  0.61691139  0.09191329     1.02400
O54         O  0.63161257  0.58318312  0.06350905    -0.85600
O55         O  0.58476256  0.63682785  0.06796278    -0.82600
C56         C  0.56991319  0.66737567  0.06487887     0.97900
O57         O  0.58501506  0.69812025  0.06277926    -0.82600
O58         O  0.61208415  0.69621028  0.50129596    -0.85300
C59         C  0.63118035  0.69096768  0.47805056     1.02400
O60         O  0.65620247  0.67216937  0.48341904    -0.78100
O61         O  0.64142583  0.59930562  0.01254738    -0.78200
C62         C  0.63203550  0.57508656  0.03275589     1.02400
Cr63       Cr  0.62778546  0.63501245  0.08557766     1.93700
Cr64       Cr  0.62806246  0.70688135  0.04402995     1.93200
Cr65       Cr  0.67009888  0.64008054  0.02487471     1.39100
O66         O  0.64213649  0.66071532  0.05159632    -1.23300
O67         O  0.37268118  0.58913605  0.06117663    -0.85600
O68         O  0.41869423  0.64370962  0.06704768    -0.82600
C69         C  0.43299977  0.67462869  0.06338102     0.97900
O70         O  0.41742315  0.70497389  0.06049266    -0.82600
O71         O  0.39150372  0.70080410  0.49939494    -0.85300
C72         C  0.37146329  0.69521834  0.47695263     1.02400
O73         O  0.34670544  0.67694934  0.48395752    -0.78000
O74         O  0.36246608  0.60557687  0.01026603    -0.78200
C75         C  0.37156896  0.58084165  0.03046519     1.02400
O76         O  0.33299488  0.63688878  0.10360061    -0.85600
O77         O  0.38139502  0.68700170  0.11343984    -0.82600
C78         C  0.36798859  0.71913711  0.11165294     0.97900
O79         O  0.35739359  0.73096602  0.08464471    -0.82600
O80         O  0.33337258  0.73056880  0.02233560    -0.85300
C81         C  0.30599903  0.71734571  0.02524855     1.02400
O82         O  0.30218096  0.68417980  0.03541309    -0.78100
O83         O  0.31242894  0.61337599  0.05860277    -0.78200
C84         C  0.31016465  0.62135563  0.08917445     1.02400
Cr85       Cr  0.37549722  0.64075227  0.08401569     1.93700
Cr86       Cr  0.37394694  0.71289326  0.04224290     1.93200
Cr87       Cr  0.33305355  0.64552628  0.02355395     1.43900
O88         O  0.36104747  0.66632126  0.04989283    -1.23300
O89         O  0.16801036  0.87142070  0.39746986    -0.85600
O90         O  0.11950559  0.82123362  0.38762676    -0.82600
C91         C  0.13271369  0.78895983  0.38896517     0.97900
O92         O  0.14373099  0.77670704  0.41563747    -0.82600
O93         O  0.16983878  0.77652348  0.47713172    -0.85300
C94         C  0.19700908  0.79046151  0.47405822     1.02400
O95         O  0.20011318  0.82373699  0.46398301    -0.78000
O96         O  0.18856480  0.89485372  0.44254355    -0.78200
C97         C  0.19087242  0.88678667  0.41203230     1.02400
O98         O  0.12869561  0.91796304  0.44125091    -0.85600
O99         O  0.08237906  0.86351799  0.43504658    -0.82600
C100        C  0.06860796  0.83227687  0.43892457     0.97900
O101        O  0.08428644  0.80191040  0.44163656    -0.82600
O102        O  0.11344953  0.81216676  0.00428050    -0.85300
C103        C  0.13404610  0.81720565  0.02630449     1.02400
O104        O  0.15868173  0.83529969  0.01875792    -0.78100
O105        O  0.13989578  0.90124670  0.49213341    -0.78200
C106        C  0.13023955  0.92583681  0.47209164     1.02400
Cr107      Cr  0.12563495  0.86696990  0.41762783     1.93700
Cr108      Cr  0.12838126  0.79413301  0.45863537     1.93200
Cr109      Cr  0.16920018  0.86161892  0.47744262     1.39100
O110        O  0.14075903  0.84099258  0.45129651    -1.23300
O111        O  0.87377906  0.92268453  0.44863234    -0.85600
O112        O  0.91906647  0.86741810  0.44262972    -0.82600
C113        C  0.93295340  0.83636422  0.44689310     0.97900
O114        O  0.91738257  0.80605164  0.44999828    -0.82600
O115        O  0.88772565  0.81175657  0.01333713    -0.85300
C116        C  0.86700183  0.81596725  0.03499890     1.02400
O117        O  0.84293243  0.83588561  0.02849220    -0.78000
O118        O  0.86232397  0.90494512  0.00260644    -0.78200
C119        C  0.87344223  0.92996425  0.47969709     1.02400
O120        O  0.83351841  0.87539695  0.40551274    -0.85600
O121        O  0.88136167  0.82347846  0.39633255    -0.82600
C122        C  0.86880299  0.79078659  0.39866722     0.97900
O123        O  0.85755566  0.78039089  0.42570371    -0.82600
O124        O  0.83187771  0.78264411  0.48706846    -0.85300
C125        C  0.80478985  0.79763359  0.48474513     1.02400
O126        O  0.80140830  0.83053954  0.47417997    -0.78100
O127        O  0.81296136  0.90014258  0.45002145    -0.78200
C128        C  0.81084558  0.89196937  0.41934797     1.02400
Cr129      Cr  0.87584679  0.87073281  0.42547761     1.93700
Cr130      Cr  0.87350451  0.79914000  0.46781909     1.93200
Cr131      Cr  0.83306411  0.86746112  0.48577436     1.39100
O132        O  0.86082406  0.84569468  0.45952142    -1.23300
O133        O  0.82968303  0.61076220  0.16690105    -0.85600
O134        O  0.85834569  0.67342986  0.14167252    -0.82600
C135        C  0.87043132  0.70592646  0.14069303     0.97900
O136        O  0.88484964  0.71794355  0.16552804    -0.82600
O137        O  0.83126669  0.73208508  0.20512266    -0.85300
C138        C  0.81007143  0.72479669  0.22620205     1.02400
O139        O  0.81142146  0.69585333  0.24424337    -0.78000
O140        O  0.80033595  0.63423068  0.20645902    -0.78200
C141        C  0.80281106  0.61807850  0.17866740     1.02400
O142        O  0.88563826  0.59102377  0.20357946    -0.85600
O143        O  0.91646855  0.65254788  0.17721442    -0.82600
C144        C  0.93153434  0.67041962  0.19952014     0.97900
O145        O  0.91727968  0.69114338  0.22033959    -0.82600
O146        O  0.86877392  0.71740553  0.26003856    -0.85300
C147        C  0.86913261  0.69447485  0.28342764     1.02400
O148        O  0.86191601  0.66015756  0.27820038    -0.78100
O149        O  0.84899737  0.59459699  0.24163792    -0.78200
C150        C  0.87150669  0.57717803  0.22819105     1.02400
Cr151      Cr  0.87162647  0.63435850  0.17522233     1.93700
Cr152      Cr  0.87422428  0.71034597  0.21231991     1.93200
Cr153      Cr  0.83309888  0.64705976  0.23996397     1.39100
O154        O  0.85974032  0.66328161  0.20933881    -1.23300
O155        O  0.12912546  0.58695406  0.19140976    -0.85600
O156        O  0.08233941  0.64135379  0.18850782    -0.82600
C157        C  0.06838385  0.67243342  0.19375363     0.97900
O158        O  0.08430094  0.70250809  0.19569615    -0.82600
O159        O  0.11478681  0.69580726  0.25527197    -0.85300
C160        C  0.13563850  0.68925570  0.27652349     1.02400
O161        O  0.16039633  0.67155354  0.26832547    -0.78000
O162        O  0.14282602  0.60289840  0.24170942    -0.78200
C163        C  0.13195065  0.57864184  0.22194241     1.02400
O164        O  0.16651748  0.63462440  0.14681109    -0.85600
O165        O  0.11712839  0.68436110  0.13991474    -0.82600
C166        C  0.12952381  0.71705167  0.14082057     0.97900
O167        O  0.14201509  0.72869036  0.16720886    -0.82600
O168        O  0.17070925  0.72827057  0.22812374    -0.85300
C169        C  0.19806025  0.71478916  0.22413887     1.02400
O170        O  0.20158035  0.68155916  0.21356238    -0.78100
O171        O  0.18966255  0.61076734  0.18996560    -0.78200
C172        C  0.19049331  0.61959636  0.15957466     1.02400
Cr173      Cr  0.12495601  0.63832820  0.16892434     1.93700
Cr174      Cr  0.12882725  0.71038797  0.21081275     1.93200
Cr175      Cr  0.17123913  0.64289884  0.22661592     1.39100
O176        O  0.14152437  0.66386372  0.20213678    -1.23300
O177        O  0.66805983  0.37130006  0.40391058    -0.85600
O178        O  0.61673934  0.32437438  0.39673135    -0.82600
C179        C  0.62795589  0.29103473  0.39649592     0.97900
O180        O  0.64089248  0.27839218  0.42213174    -0.82600
O181        O  0.67113186  0.27488837  0.48157289    -0.85300
C182        C  0.69852888  0.28775585  0.47699632     1.02400
O183        O  0.70232818  0.32081528  0.46662217    -0.78000
O184        O  0.69196623  0.39330353  0.44731673    -0.78200
C185        C  0.69228507  0.38569821  0.41660202     1.02400
O186        O  0.63286881  0.41898065  0.45097593    -0.85600
O187        O  0.58463865  0.36810082  0.44669589    -0.82600
C188        C  0.56979104  0.33778750  0.45085382     0.97900
O189        O  0.58454069  0.30658741  0.45295146    -0.82600
O190        O  0.61537710  0.30507181  0.00939684    -0.85300
C191        C  0.63690328  0.31030436  0.03026671     1.02400
O192        O  0.66163687  0.32761413  0.02153233    -0.78100
O193        O  0.64403484  0.39732673  0.99857720    -0.78200
C194        C  0.63533772  0.42516224  0.48201399     1.02400
Cr195      Cr  0.62683167  0.36899950  0.42672155     1.93700
Cr196      Cr  0.62921268  0.29546300  0.46643808     1.93200
Cr197      Cr  0.67383093  0.35998264  0.48297184     1.39100
O198        O  0.64296417  0.34154646  0.45884318    -1.23300
O199        O  0.37176800  0.42076417  0.44108655    -0.85600
O200        O  0.41934407  0.36681814  0.43695573    -0.82600
C201        C  0.43345246  0.33567507  0.44144262     0.97900
O202        O  0.41792021  0.30533295  0.44309448    -0.82600
O203        O  0.38663489  0.30756162  0.00183632    -0.85300
C204        C  0.36753361  0.31477868  0.02461884     1.02400
O205        O  0.34337377  0.33486156  0.01864833    -0.78000
O206        O  0.36140351  0.40518326  0.49218638    -0.78200
C207        C  0.37011246  0.42962519  0.47156507     1.02400
O208        O  0.33344628  0.37294453  0.39818145    -0.85600
O209        O  0.38358875  0.32382988  0.38923308    -0.82600
C210        C  0.37152687  0.29106842  0.38957907     0.97900
O211        O  0.35938190  0.27919590  0.41593974    -0.82600
O212        O  0.33355661  0.27846938  0.47839760    -0.85300
C213        C  0.30611160  0.29198258  0.47684540     1.02400
O214        O  0.30208806  0.32524959  0.46688575    -0.78100
O215        O  0.31184101  0.39579401  0.44300978    -0.78200
C216        C  0.31016996  0.38830749  0.41224278     1.02400
Cr217      Cr  0.37598909  0.36941777  0.41873185     1.93700
Cr218      Cr  0.37425952  0.29673666  0.45956691     1.93200
Cr219      Cr  0.33270005  0.36418790  0.47863248     1.39100
O220        O  0.36114896  0.34350224  0.45242441    -1.23300
O221        O  0.33446666  0.13407702  0.14545226    -0.85600
O222        O  0.38386428  0.18352845  0.13646962    -0.82600
C223        C  0.37166016  0.21639551  0.13815659     0.97900
O224        O  0.36112550  0.22889246  0.16499531    -0.82600
O225        O  0.33241783  0.22872512  0.22475048    -0.85300
C226        C  0.30486639  0.21546928  0.22083625     1.02400
O227        O  0.30112726  0.18171594  0.21194613    -0.78000
O228        O  0.31349320  0.11023596  0.18977722    -0.78200
C229        C  0.31175382  0.11768523  0.15913380     1.02400
O230        O  0.37276361  0.08700226  0.18942072    -0.85600
O231        O  0.41963054  0.13994238  0.18399217    -0.82600
C232        C  0.43424900  0.17011621  0.18985144     0.97900
O233        O  0.41911218  0.20097254  0.19288654    -0.82600
O234        O  0.38901080  0.19538732  0.25231488    -0.85300
C235        C  0.36830578  0.19145604  0.27407913     1.02400
O236        O  0.34324589  0.17412903  0.26656883    -0.78100
O237        O  0.36169494  0.10466264  0.24003527    -0.78200
C238        C  0.37095422  0.07943143  0.22018161     1.02400
Cr239      Cr  0.37658923  0.13785313  0.16608777     1.93700
Cr240      Cr  0.37456542  0.21017619  0.20807170     1.93200
Cr241      Cr  0.33225194  0.14383348  0.22527027     1.39100
O242        O  0.36120097  0.16408290  0.19961058    -1.23300
O243        O  0.63218924  0.08709255  0.19630924    -0.85600
O244        O  0.58573928  0.14204699  0.19019372    -0.82600
C245        C  0.57168847  0.17336687  0.19381125     0.97900
O246        O  0.58768104  0.20339473  0.19666780    -0.82600
O247        O  0.61120317  0.19623192  0.25903540    -0.85300
C248        C  0.62925726  0.18988479  0.28298828     1.02400
O249        O  0.65400258  0.17060937  0.27826673    -0.78000
O250        O  0.63805705  0.10281119  0.24836449    -0.78200
C251        C  0.63110407  0.07859955  0.22681253     1.02400
O252        O  0.67305999  0.13456508  0.15750227    -0.85600
O253        O  0.62463538  0.18499941  0.14578633    -0.82600
C254        C  0.63819296  0.21690119  0.14773620     0.97900
O255        O  0.64895282  0.22839255  0.17499931    -0.82600
O256        O  0.67072360  0.22721438  0.23967558    -0.85300
C257        C  0.69785339  0.21215467  0.24018090     1.02400
O258        O  0.70186899  0.17922033  0.22947685    -0.78100
O259        O  0.69157389  0.10976832  0.20301805    -0.78200
C260        C  0.69514605  0.11803184  0.17266541     1.02400
Cr261      Cr  0.62976712  0.13874441  0.17479043     1.93700
Cr262      Cr  0.63060750  0.21055897  0.21691915     1.93200
Cr263      Cr  0.66924330  0.14174120  0.23781472     1.39100
O264        O  0.64330244  0.16379741  0.20975344    -1.23300
O265        O  0.83444598  0.37912967  0.36241331    -0.85600
O266        O  0.88260830  0.32923459  0.37516032    -0.82600
C267        C  0.86752366  0.29837877  0.37564854     0.97900
O268        O  0.85472902  0.28601754  0.34992319    -0.82600
O269        O  0.83100734  0.28052775  0.28749799    -0.85300
C270        C  0.80442961  0.29673902  0.28667108     1.02400
O271        O  0.80204700  0.33100198  0.29371237    -0.78000
O272        O  0.81484735  0.40053656  0.31597259    -0.78200
C273        C  0.81184816  0.39359211  0.34675702     1.02400
O274        O  0.87447034  0.42271338  0.31885284    -0.85600
O275        O  0.91983697  0.36720418  0.32657460    -0.82600
C276        C  0.93314356  0.33532137  0.32556442     0.97900
O277        O  0.91680354  0.30520329  0.32462416    -0.82600
O278        O  0.89096043  0.30479580  0.26308148    -0.85300
C279        C  0.87265722  0.31039146  0.23934518     1.02400
O280        O  0.84922327  0.33254400  0.24304271    -0.78100
O281        O  0.86674673  0.40349311  0.26817365    -0.78200
C282        C  0.87452351  0.42941388  0.28799790     1.02400
Cr283      Cr  0.87683774  0.37295608  0.34348394     1.93700
Cr284      Cr  0.87262921  0.29752230  0.30679171     1.93200
Cr285      Cr  0.83546669  0.36583670  0.28201680     1.39100
O286        O  0.86182057  0.34544784  0.31053108    -1.23300
O287        O  0.12793856  0.42099033  0.31105307    -0.85600
O288        O  0.08236504  0.36473791  0.31714165    -0.82600
C289        C  0.06921536  0.33276584  0.31538451     0.97900
O290        O  0.08583122  0.30304254  0.31315514    -0.82600
O291        O  0.11172664  0.30868821  0.25156974    -0.85300
C292        C  0.13061515  0.31448764  0.22836104     1.02400
O293        O  0.15529682  0.33368092  0.23395546    -0.78000
O294        O  0.13874997  0.40320317  0.26062947    -0.78200
C295        C  0.12950275  0.42851807  0.28031864     1.02400
O296        O  0.16779051  0.37572029  0.35454825    -0.85600
O297        O  0.12042322  0.32462735  0.36462496    -0.82600
C298        C  0.13482357  0.29304539  0.36399519     0.97900
O299        O  0.14679156  0.28089206  0.33762438    -0.82600
O300        O  0.17077858  0.27894539  0.27451198    -0.85300
C301        C  0.19794656  0.29353984  0.27640228     1.02400
O302        O  0.20091224  0.32705423  0.28595582    -0.78100
O303        O  0.18943367  0.39744712  0.30964485    -0.78200
C304        C  0.19093816  0.39085846  0.34059741     1.02400
Cr305      Cr  0.12567032  0.36995705  0.33447241     1.93700
Cr306      Cr  0.12961718  0.29628676  0.29480104     1.93200
Cr307      Cr  0.16885246  0.36425459  0.27438974     1.39100
O308        O  0.14131560  0.34355683  0.30122882    -1.23300
O309        O  0.16922586  0.13237049  0.10413164    -0.85600
O310        O  0.11852013  0.17992422  0.11449558    -0.82600
C311        C  0.12932251  0.21344279  0.11451518     0.97900
O312        O  0.14154329  0.22621436  0.08863216    -0.82600
O313        O  0.16868332  0.23066451  0.02764728    -0.85300
C314        C  0.19637624  0.21771915  0.03046923     1.02400
O315        O  0.20091260  0.18425638  0.03971086    -0.78000
O316        O  0.19097350  0.11138426  0.05895106    -0.78200
C317        C  0.19256669  0.11782986  0.08977404     1.02400
O318        O  0.13199386  0.08582378  0.05778056    -0.85600
O319        O  0.08419429  0.13755988  0.06519883    -0.82600
C320        C  0.06916838  0.16806295  0.06236498     0.97900
O321        O  0.08375194  0.19924610  0.06060729    -0.82600
O322        O  0.11428997  0.19689936  0.49923674    -0.85300
C323        C  0.13508925  0.19391670  0.47743856     1.02400
O324        O  0.16032088  0.17631610  0.48424796    -0.78100
O325        O  0.14301715  0.10666178  0.00847930    -0.78200
C326        C  0.13336355  0.08053432  0.02650064     1.02400
Cr327      Cr  0.12709859  0.13564558  0.08330483     1.93700
Cr328      Cr  0.12760932  0.21012948  0.04481593     1.93200
Cr329      Cr  0.17121453  0.14558981  0.02499044     1.39100
O330        O  0.14178944  0.16382619  0.05105563    -1.23300
O331        O  0.87211948  0.08946626  0.06563638    -0.85600
O332        O  0.91865731  0.14262673  0.07248788    -0.82600
C333        C  0.93306191  0.17330889  0.06805850     0.97900
O334        O  0.91800307  0.20403757  0.06483340    -0.82600
O335        O  0.88986667  0.19931743  0.50692099    -0.85300
C336        C  0.86932165  0.19520625  0.48498283     1.02400
O337        O  0.84474841  0.17653679  0.49142101    -0.78000
O338        O  0.86121926  0.10765772  0.01527888    -0.78200
C339        C  0.87139201  0.08270275  0.03453626     1.02400
O340        O  0.83274469  0.13621142  0.11005023    -0.85600
O341        O  0.88281248  0.18577600  0.11983178    -0.82600
C342        C  0.87241643  0.21963375  0.11889588     0.97900
O343        O  0.86040223  0.23195417  0.09268876    -0.82600
O344        O  0.83217627  0.23239196  0.03137501    -0.85300
C345        C  0.80500163  0.21813880  0.03414181     1.02400
O346        O  0.80175669  0.18505177  0.04450517    -0.78100
O347        O  0.81263501  0.11291171  0.06491203    -0.78200
C348        C  0.80998067  0.12039279  0.09541107     1.02400
Cr349      Cr  0.87543106  0.14024961  0.08985425     1.93700
Cr350      Cr  0.87388642  0.21351615  0.04907765     1.93200
Cr351      Cr  0.83197892  0.14674999  0.03051595     1.39100
O352        O  0.86064994  0.16693223  0.05656131    -1.23300
C353        C  0.98267482  0.14100078  0.05303436    -0.06000
C354        C  0.96790896  0.17299175  0.06682537    -0.00100
C355        C  0.98660662  0.20267980  0.07994787    -0.08600
C356        C  0.01944465  0.19992837  0.07722760    -0.06000
C357        C  0.03427379  0.16806712  0.06328851    -0.00100
C358        C  0.01559341  0.13758018  0.05141216    -0.08500
C359        C  0.02990521  0.10162866  0.03691897     0.61800
H360        H  0.96802833  0.11836776  0.04358784     0.12500
H361        H  0.03396899  0.22262359  0.08676890     0.12500
C362        C  0.97235725  0.23638976  0.09808482     0.62100
F363        F  0.00726312  0.07773985  0.02388176    -0.23100
F364        F  0.04568331  0.08193399  0.06139114    -0.20400
F365        F  0.05053024  0.11058981  0.01173192    -0.20100
F366        F  0.95182813  0.22395182  0.12219496    -0.20200
F367        F  0.95778845  0.25514772  0.58447148    -0.20500
F368        F  0.99699000  0.24992122  0.62108419    -0.23200
C369        C  0.14182213  0.27506525  0.14130506    -0.06000
C370        C  0.12695606  0.23945668  0.14381579    -0.00100
C371        C  0.10945974  0.23149398  0.17287531    -0.08600
C372        C  0.11006810  0.25794576  0.19906213    -0.06000
C373        C  0.12667608  0.29235730  0.19715320    -0.00100
C374        C  0.14145464  0.30191803  0.16707116    -0.08500
C375        C  0.15635055  0.34039264  0.16165648     0.61800
H376        H  0.15433404  0.28197620  0.11886588     0.12500
H377        H  0.09832522  0.25105701  0.22197617     0.12500
C378        C  0.09004620  0.19570421  0.17669866     0.62100
F379        F  0.16218588  0.34693160  0.12846309    -0.23100
F380        F  0.18461793  0.34254238  0.17846008    -0.20400
F381        F  0.13633583  0.36864275  0.17279506    -0.20100
F382        F  0.10948726  0.16427223  0.17614118    -0.20200
F383        F  0.06824310  0.19329591  0.15131516    -0.20500
F384        F  0.07364531  0.19523427  0.20627151    -0.23200
C385        C  0.10664172  0.25904353  0.40794074    -0.06000
C386        C  0.13538953  0.26837292  0.39327371    -0.00100
C387        C  0.16355868  0.25213631  0.40528563    -0.08600
C388        C  0.16187586  0.22651682  0.43162208    -0.06000
C389        C  0.13315977  0.21701275  0.44673825    -0.00100
C390        C  0.10485176  0.23364303  0.43463379    -0.08500
C391        C  0.07283495  0.22518665  0.44950444     0.61800
H392        H  0.08544518  0.27181996  0.39808021     0.12500
H393        H  0.18346282  0.21445189  0.44115065     0.12500
C394        C  0.19541871  0.26238447  0.39093589     0.62100
F395        F  0.04855910  0.23918237  0.43018456    -0.23100
F396        F  0.07044140  0.24187401  0.48043810    -0.20400
F397        F  0.06874653  0.18650100  0.45215789    -0.20100
F398        F  0.19815584  0.30121923  0.38841569    -0.20200
F399        F  0.19864794  0.24627201  0.35988944    -0.20500
F400        F  0.21992165  0.24962532  0.41059535    -0.23200
C401        C  0.87166467  0.30537555  0.17817858    -0.06000
C402        C  0.87642117  0.28754571  0.20858367    -0.00100
C403        C  0.88256297  0.24780743  0.20905019    -0.08600
C404        C  0.88050937  0.22726087  0.17926104    -0.06000
C405        C  0.87470786  0.24475198  0.14880525    -0.00100
C406        C  0.87235246  0.28511626  0.14804101    -0.08500
C407        C  0.87183013  0.30744818  0.11605201     0.61800
H408        H  0.86781041  0.33569487  0.17825245     0.12500
H409        H  0.88337385  0.19683673  0.17962644     0.12500
C410        C  0.89072482  0.22627785  0.24051374     0.62100
F411        F  0.87451414  0.34601842  0.12160961    -0.23100
F412        F  0.84390157  0.30145764  0.09971742    -0.20400
F413        F  0.89666932  0.29642973  0.09615723    -0.20100
F414        F  0.86665383  0.22944111  0.26309534    -0.20200
F415        F  0.91816959  0.24031998  0.25411147    -0.20500
F416        F  0.89542019  0.18804059  0.23460264    -0.23200
C417        C  0.89659227  0.25948124  0.41544467    -0.06000
C418        C  0.86761846  0.27401432  0.40484882    -0.00100
C419        C  0.83939330  0.26122799  0.41925176    -0.08600
C420        C  0.84120938  0.23385599  0.44413962    -0.06000
C421        C  0.87020027  0.21920043  0.45512615    -0.00100
C422        C  0.89850416  0.23203548  0.44045039    -0.08500
C423        C  0.93049152  0.21650933  0.45039050     0.61800
H424        H  0.91776928  0.26939410  0.40344331     0.12500
H425        H  0.81976820  0.22451746  0.45592486     0.12500
C426        C  0.80760433  0.27726123  0.40905699     0.62100
F427        F  0.95369525  0.22707299  0.42832669    -0.23100
F428        F  0.92962610  0.17739059  0.45102564    -0.20400
F429        F  0.93881840  0.23013106  0.48130943    -0.20100
F430        F  0.80048892  0.26623097  0.37704555    -0.20200
F431        F  0.80830038  0.31634044  0.41076452    -0.20500
F432        F  0.78368131  0.26487849  0.42947181    -0.23200
C433        C  0.98245885  0.30540255  0.30563657    -0.06000
C434        C  0.96803311  0.33319661  0.32542335    -0.00100
C435        C  0.98711575  0.35874163  0.34371526    -0.08600
C436        C  0.01989461  0.35698625  0.33974857    -0.06000
C437        C  0.03438561  0.33042839  0.31873363    -0.00100
C438        C  0.01538323  0.30346347  0.30181935    -0.08500
C439        C  0.02927990  0.27389320  0.27862304     0.61800
H440        H  0.96752263  0.28583295  0.29225255     0.12500
H441        H  0.03462772  0.37681471  0.35309966     0.12500
C442        C  0.97330497  0.38744248  0.36785757     0.62100
F443        F  0.00623956  0.25277053  0.26292443    -0.23100
F444        F  0.04811140  0.24909845  0.29616003    -0.20400
F445        F  0.04684425  0.29149829  0.25446834    -0.20100
F446        F  0.95193659  0.36995196  0.38849112    -0.20200
F447        F  0.95850517  0.41617290  0.35065265    -0.20500
F448        F  0.99623840  0.40370194  0.38764506    -0.23200
C449        C  0.72317956  0.10921827  0.11928557    -0.06000
C450        C  0.72496393  0.10939769  0.15402890    -0.00100
C451        C  0.75509930  0.10505420  0.16890042    -0.08600
C452        C  0.78216596  0.10770796  0.14872633    -0.06000
C453        C  0.78031695  0.11138171  0.11406704    -0.00100
C454        C  0.75005912  0.10886999  0.09893600    -0.08500
C455        C  0.74530874  0.10671458  0.06166288     0.61800
H456        H  0.70013600  0.11029902  0.10794476     0.12500
H457        H  0.80522373  0.10742312  0.16009463     0.12500
C458        C  0.75909968  0.09774606  0.20563021     0.62100
F459        F  0.71404642  0.10176046  0.05313313    -0.23100
F460        F  0.76191153  0.07635599  0.04879462    -0.20400
F461        F  0.75518520  0.13973004  0.04714272    -0.20100
F462        F  0.74214876  0.06599549  0.21439092    -0.20200
F463        F  0.74868741  0.12855801  0.22357708    -0.20500
F464        F  0.79020987  0.09132005  0.21409051    -0.23200
C465        C  0.77249476  0.23907718  0.28652278    -0.06000
C466        C  0.77633836  0.27615757  0.27552588    -0.00100
C467        C  0.75406843  0.29220241  0.25328029    -0.08600
C468        C  0.72839578  0.27019330  0.24331845    -0.06000
C469        C  0.72466184  0.23296386  0.25406054    -0.00100
C470        C  0.74670015  0.21713127  0.27683063    -0.08500
C471        C  0.74450427  0.17848605  0.29313597     0.61800
H472        H  0.78963265  0.22730115  0.30357493     0.12500
H473        H  0.71128182  0.28158940  0.22612229     0.12500
C474        C  0.75802099  0.33131475  0.23823617     0.62100
F475        F  0.74524933  0.18309503  0.32717121    -0.23100
F476        F  0.77015359  0.15678966  0.28382752    -0.20400
F477        F  0.71761077  0.15875836  0.28553961    -0.20100
F478        F  0.78709480  0.33385013  0.22327512    -0.20200
F479        F  0.75535320  0.35891064  0.26233039    -0.20500
F480        F  0.73544870  0.33882593  0.21440200    -0.23200
C481        C  0.48501919  0.20486749  0.18937502    -0.06000
C482        C  0.46942131  0.16998560  0.19206695    -0.00100
C483        C  0.48771950  0.13668810  0.19719831    -0.08600
C484        C  0.52071329  0.13963592  0.19754339    -0.06000
C485        C  0.53640943  0.17437117  0.19398711    -0.00100
C486        C  0.51803748  0.20796840  0.19075426    -0.08500
C487        C  0.53257588  0.24716121  0.18869798     0.61800
H488        H  0.47096810  0.23011556  0.18599746     0.12500
H489        H  0.53465173  0.11426540  0.20069088     0.12500
C490        C  0.47306819  0.09798092  0.20280906     0.62100
F491        F  0.51015302  0.27530706  0.18494115    -0.23100
F492        F  0.55246103  0.24899370  0.16180322    -0.20400
F493        F  0.54908401  0.25492510  0.21745910    -0.20100
F494        F  0.45871441  0.08551156  0.17403433    -0.20200
F495        F  0.45124369  0.10009193  0.22810928    -0.20500
F496        F  0.49522011  0.07109017  0.21174788    -0.23200
C497        C  0.25422660  0.10489236  0.15823311    -0.06000
C498        C  0.28219449  0.10947718  0.14019663    -0.00100
C499        C  0.28043995  0.10914822  0.10504216    -0.08600
C500        C  0.25064299  0.11019368  0.08976876    -0.06000
C501        C  0.22255673  0.11038619  0.10809722    -0.00100
C502        C  0.22437423  0.10552652  0.14296660    -0.08500
C503        C  0.19524569  0.10134265  0.16434864     0.61800
H504        H  0.25572613  0.10291786  0.18491616     0.12500
H505        H  0.24924723  0.11258179  0.06308537     0.12500
C506        C  0.30952422  0.10669437  0.08334177     0.62100
F507        F  0.20270933  0.08949954  0.19603866    -0.23100
F508        F  0.17533353  0.07468154  0.15056423    -0.20400
F509        F  0.17978071  0.13569830  0.16696769    -0.20100
F510        F  0.32961254  0.07905473  0.09527860    -0.20200
F511        F  0.32484463  0.14108938  0.08280200    -0.20500
F512        F  0.30195071  0.09714505  0.05101335    -0.23200
C513        C  0.28185472  0.26161490  0.25918468    -0.06000
C514        C  0.27726586  0.23754660  0.23196065    -0.00100
C515        C  0.24643750  0.23225375  0.21924371    -0.08600
C516        C  0.22117219  0.24983666  0.23554855    -0.06000
C517        C  0.22575769  0.27338961  0.26318246    -0.00100
C518        C  0.25674206  0.27984339  0.27502285    -0.08500
C519        C  0.26381245  0.30622723  0.30379362     0.61800
H520        H  0.30549401  0.26552011  0.26856724     0.12500
H521        H  0.19748150  0.24565707  0.22634885     0.12500
C522        C  0.23947061  0.20729773  0.18950732     0.62100
F523        F  0.29440547  0.30231518  0.31506165    -0.23100
F524        F  0.24398625  0.29887674  0.33004905    -0.20400
F525        F  0.25988184  0.34308464  0.29344418    -0.20100
F526        F  0.23856555  0.17013840  0.19967749    -0.20200
F527        F  0.26216493  0.21144316  0.16541396    -0.20500
F528        F  0.21076326  0.21625101  0.17526065    -0.23200
C529        C  0.35613633  0.23071698  0.36163494    -0.06000
C530        C  0.37248893  0.26542844  0.35981496    -0.00100
C531        C  0.38954957  0.27356313  0.33038211    -0.08600
C532        C  0.38858637  0.24732138  0.30409469    -0.06000
C533        C  0.37114435  0.21360871  0.30547435    -0.00100
C534        C  0.35509725  0.20470518  0.33505894    -0.08500
C535        C  0.33701072  0.16799789  0.33884889     0.61800
H536        H  0.34336801  0.22418474  0.38401101     0.12500
H537        H  0.40062843  0.25393405  0.28130219     0.12500
C538        C  0.40835847  0.30976850  0.32568840     0.62100
F539        F  0.32887174  0.16145242  0.37148331    -0.23100
F540        F  0.35523207  0.13780360  0.32821576    -0.20400
F541        F  0.30964024  0.16953680  0.32038941    -0.20100
F542        F  0.43112674  0.31293827  0.34993128    -0.20200
F543        F  0.38849145  0.34076320  0.32700686    -0.20500
F544        F  0.42361740  0.31058005  0.29545049    -0.23200
C545        C  0.34203833  0.28266271  0.07131689    -0.06000
C546        C  0.37022094  0.29384052  0.05625702    -0.00100
C547        C  0.39925592  0.28016244  0.06899199    -0.08600
C548        C  0.39877215  0.25368544  0.09500180    -0.06000
C549        C  0.37044564  0.24173423  0.10919354    -0.00100
C550        C  0.34162808  0.25717872  0.09783224    -0.08500
C551        C  0.31044050  0.24644528  0.11336034     0.61800
H552        H  0.32000513  0.29323728  0.06149747     0.12500
H553        H  0.42062667  0.24247349  0.10476708     0.12500
C554        C  0.43064716  0.29358795  0.05565095     0.62100
F555        F  0.28507497  0.26001198  0.09540496    -0.23100
F556        F  0.30865145  0.26148959  0.14494804    -0.20400
F557        F  0.30787720  0.20751963  0.11487384    -0.20100
F558        F  0.42982550  0.33225624  0.05036628    -0.20200
F559        F  0.43733045  0.27516896  0.02621055    -0.20500
F560        F  0.45484214  0.28628569  0.07769949    -0.23200
C561        C  0.25102010  0.29210417  0.49539955    -0.06000
C562        C  0.27889787  0.27118521  0.49044189    -0.00100
C563        C  0.26871888  0.23602144  0.98010472    -0.08600
C564        C  0.24310739  0.21868907  0.99550905    -0.06000
C565        C  0.22317648  0.23869726  0.01712340    -0.00100
C566        C  0.22439146  0.27654122  0.51033341    -0.08500
C567        C  0.19583913  0.30173897  0.51615497     0.61800
H568        H  0.25012483  0.32135119  0.48768853     0.12500
H569        H  0.23814923  0.18918655  0.99042361     0.12500
C570        C  0.28892213  0.21337921  0.95610909     0.62100
F571        F  0.20256501  0.33957646  0.51102133    -0.23100
F572        F  0.18569146  0.29823602  0.54851740    -0.20400
F573        F  0.17194493  0.29172498  0.49460434    -0.20100
F574        F  0.31873783  0.20842041  0.96905434    -0.20200
F575        F  0.29087160  0.23226609  0.92628592    -0.20500
F576        F  0.27653013  0.17786023  0.94989556    -0.23200
C577        C  0.24894739  0.40355762  0.34286431    -0.06000
C578        C  0.22060366  0.39841560  0.36014790    -0.00100
C579        C  0.22202860  0.39736798  0.39542637    -0.08600
C580        C  0.25168957  0.39531672  0.41119266    -0.06000
C581        C  0.28012694  0.39590988  0.39347480    -0.00100
C582        C  0.27865460  0.40239655  0.35874628    -0.08500
C583        C  0.30809000  0.40861875  0.33832122     0.61800
H584        H  0.24780862  0.40705593  0.31629402     0.12500
H585        H  0.25272623  0.39185371  0.43780436     0.12500
C586        C  0.19272255  0.39988284  0.41687386     0.62100
F587        F  0.30102717  0.42150234  0.30684814    -0.23100
F588        F  0.32457973  0.37506554  0.33504559    -0.20400
F589        F  0.32688865  0.43544818  0.35354402    -0.20100
F590        F  0.17659576  0.36602441  0.41633681    -0.20200
F591        F  0.17337715  0.42859713  0.40551786    -0.20500
F592        F  0.20010504  0.40797292  0.44954203    -0.23200
C593        C  0.75900087  0.21389602  0.50070850    -0.06000
C594        C  0.77737465  0.23667730  0.01967660    -0.00100
C595        C  0.76944988  0.27475793  0.02586493    -0.08600
C596        C  0.74331652  0.28993353  0.00960804    -0.06000
C597        C  0.72597833  0.26817917  0.49057108    -0.00100
C598        C  0.73257995  0.22958128  0.48504407    -0.08500
C599        C  0.71244319  0.20550422  0.46222902     0.61800
H600        H  0.76505594  0.18455636  0.49617480     0.12500
H601        H  0.73676256  0.31916295  0.01405001     0.12500
C602        C  0.78740422  0.29850733  0.05068256     0.62100
F603        F  0.72520633  0.16980204  0.45749779    -0.23100
F604        F  0.70985082  0.22269749  0.43164936    -0.20400
F605        F  0.68283800  0.20122279  0.47570193    -0.20100
F606        F  0.81742148  0.30505750  0.03907200    -0.20200
F607        F  0.78878747  0.27948476  0.08048997    -0.20500
F608        F  0.77310900  0.33319294  0.05631929    -0.23200
C609        C  0.74816449  0.40727723  0.41279507    -0.06000
C610        C  0.72151004  0.39266006  0.39635716    -0.00100
C611        C  0.72456068  0.38281059  0.36214090    -0.08600
C612        C  0.75403069  0.38685306  0.34662844    -0.06000
C613        C  0.78091584  0.39872854  0.36374444    -0.00100
C614        C  0.77782257  0.41010982  0.39733422    -0.08500
C615        C  0.80559874  0.42503440  0.41707610     0.61800
H616        H  0.74607676  0.41505313  0.43866065     0.12500
H617        H  0.75683061  0.37826910  0.32108749     0.12500
C618        C  0.69756100  0.36676857  0.34184162     0.62100
F619        F  0.79611596  0.44205478  0.44636114    -0.23100
F620        F  0.82157571  0.45177174  0.39882121    -0.20400
F621        F  0.82575753  0.39565865  0.42492795    -0.20100
F622        F  0.67260845  0.39192656  0.34219125    -0.20200
F623        F  0.68848442  0.33227451  0.35468346    -0.20500
F624        F  0.70571877  0.36071576  0.30908262    -0.23200
C625        C  0.61307930  0.24934480  0.30999259    -0.06000
C626        C  0.62509345  0.21244477  0.31379328    -0.00100
C627        C  0.63593158  0.20087462  0.34527002    -0.08600
C628        C  0.63571626  0.22741434  0.37130160    -0.06000
C629        C  0.62532768  0.26516885  0.36716204    -0.00100
C630        C  0.61308103  0.27609590  0.33586816    -0.08500
C631        C  0.60060582  0.31567241  0.32898969     0.61800
H632        H  0.60489607  0.25784728  0.28575154     0.12500
H633        H  0.64443633  0.21864045  0.39524676     0.12500
C634        C  0.64722447  0.16074406  0.35181273     0.62100
F635        F  0.59085428  0.31987426  0.29648607    -0.23100
F636        F  0.62391053  0.34200526  0.33472337    -0.20400
F637        F  0.57507216  0.32323005  0.34912097    -0.20100
F638        F  0.67557577  0.15433900  0.33619866    -0.20200
F639        F  0.62521584  0.13516377  0.34025835    -0.20500
F640        F  0.65164943  0.15412134  0.38526476    -0.23200
C641        C  0.66480869  0.28135820  0.07788545    -0.06000
C642        C  0.63583698  0.29065992  0.06288755    -0.00100
C643        C  0.60763035  0.27671515  0.07714038    -0.08600
C644        C  0.60975438  0.25219487  0.10442116    -0.06000
C645        C  0.63865494  0.24236938  0.11873819    -0.00100
C646        C  0.66672854  0.25737200  0.10558141    -0.08500
C647        C  0.69865727  0.24634317  0.11948552     0.61800
H648        H  0.68625376  0.29171380  0.06689943     0.12500
H649        H  0.58864360  0.24002850  0.11463936     0.12500
C650        C  0.57526494  0.28713186  0.06394377     0.62100
F651        F  0.72304780  0.26126102  0.10109907    -0.23100
F652        F  0.70175859  0.20736169  0.11922784    -0.20400
F653        F  0.70160946  0.25954720  0.15159666    -0.20100
F654        F  0.56933216  0.26742804  0.03495806    -0.20200
F655        F  0.57356815  0.32562500  0.05805026    -0.20500
F656        F  0.55181336  0.27833464  0.08632719    -0.23200
C657        C  0.51985336  0.30525964  0.43853924    -0.06000
C658        C  0.53481281  0.33791327  0.45051660    -0.00100
C659        C  0.51617744  0.36911373  0.46112493    -0.08600
C660        C  0.48330769  0.36710171  0.45728299    -0.06000
C661        C  0.46835699  0.33465972  0.44464427    -0.00100
C662        C  0.48699020  0.30256317  0.43596284    -0.08500
C663        C  0.47290325  0.26527038  0.42422607     0.61800
H664        H  0.53432312  0.28151749  0.43102520     0.12500
H665        H  0.46887984  0.39097122  0.46461951     0.12500
C666        C  0.52885599  0.39959820  0.97676307     0.62100
F667        F  0.49569331  0.23984448  0.41378521    -0.23100
F668        F  0.45283247  0.27123273  0.39788050    -0.20400
F669        F  0.45664668  0.24866446  0.44992858    -0.20100
F670        F  0.54692808  0.42473255  0.45450336    -0.20200
F671        F  0.55026086  0.38905591  0.00087554    -0.20500
F672        F  0.50655328  0.42260272  0.99169479    -0.23200
C673        C  0.12049637  0.53629582  0.26971805    -0.06000
C674        C  0.12492667  0.53990222  0.23522576    -0.00100
C675        C  0.12581702  0.50645427  0.21567302    -0.08600
C676        C  0.12448863  0.47110407  0.23162912    -0.06000
C677        C  0.12344292  0.46739382  0.26641721    -0.00100
C678        C  0.11990067  0.50083158  0.28579196    -0.08500
C679        C  0.11650416  0.49973924  0.32323186     0.61800
H680        H  0.11886815  0.56190157  0.28443881     0.12500
H681        H  0.12586011  0.44567844  0.21668379     0.12500
C682        C  0.12986428  0.50746405  0.17830652     0.62100
F683        F  0.11130470  0.53536006  0.33659951    -0.23100
F684        F  0.14367777  0.48545280  0.33735761    -0.20400
F685        F  0.09119553  0.47730052  0.33167583    -0.20100
F686        F  0.15779124  0.52523921  0.17048869    -0.20200
F687        F  0.10491439  0.52665760  0.16410016    -0.20500
F688        F  0.13077348  0.47156691  0.16446109    -0.23200
C689        C  0.87769836  0.53697909  0.27742945    -0.06000
C690        C  0.88035449  0.53996870  0.24287258    -0.00100
C691        C  0.88620584  0.50681766  0.22401436    -0.08600
C692        C  0.88661093  0.47156320  0.24034749    -0.06000
C693        C  0.88068784  0.46820738  0.27460167    -0.00100
C694        C  0.87725731  0.50188300  0.29373726    -0.08500
C695        C  0.87102224  0.50142619  0.33079414     0.61800
H696        H  0.87398776  0.56274651  0.29151345     0.12500
H697        H  0.89005521  0.44596206  0.22598370     0.12500
C698        C  0.89029519  0.50822242  0.18673193     0.62100
F699        F  0.86842915  0.53752992  0.34398660    -0.23100
F700        F  0.89549883  0.48346165  0.34699961    -0.20400
F701        F  0.84308139  0.48287829  0.33697543    -0.20100
F702        F  0.91629008  0.52979195  0.17912664    -0.20200
F703        F  0.86386887  0.52397462  0.17224240    -0.20500
F704        F  0.89475865  0.47256807  0.17313932    -0.23200
C705        C  0.98209722  0.70423153  0.20327161    -0.06000
C706        C  0.96643635  0.66967638  0.19948323    -0.00100
C707        C  0.98423858  0.63608925  0.19515017    -0.08600
C708        C  0.01720610  0.63858966  0.19388940    -0.06000
C709        C  0.03318962  0.67334908  0.19656107    -0.00100
C710        C  0.01509829  0.70704272  0.20164764    -0.08500
C711        C  0.02977313  0.74610202  0.20506583     0.61800
H712        H  0.96793489  0.72946634  0.20667523     0.12500
H713        H  0.03077008  0.61294135  0.19037863     0.12500
C714        C  0.96872552  0.59754455  0.19272677     0.62100
F715        F  0.00741338  0.77415279  0.20988740    -0.23100
F716        F  0.04606385  0.75495579  0.17657032    -0.20400
F717        F  0.04984987  0.74689698  0.23201824    -0.20100
F718        F  0.95181500  0.59488170  0.16357138    -0.20200
F719        F  0.94891599  0.59254941  0.21942200    -0.20500
F720        F  0.99049510  0.56833922  0.19296988    -0.23200
C721        C  0.88424722  0.99899104  0.47232590    -0.06000
C722        C  0.88173151  0.96804284  0.49376512    -0.00100
C723        C  0.88239606  0.97605005  0.03167652    -0.08600
C724        C  0.88130404  0.01389266  0.04276318    -0.06000
C725        C  0.87922664  0.04434021  0.02074401    -0.00100
C726        C  0.88507342  0.03660689  0.48427817    -0.08500
C727        C  0.88984344  0.06839568  0.45960954     0.61800
H728        H  0.88407065  0.99375389  0.44589486     0.12500
H729        H  0.88052606  0.01973167  0.06907975     0.12500
C730        C  0.88582075  0.94510618  0.05745867     0.62100
F731        F  0.90115927  0.05484093  0.42968156    -0.23100
F732        F  0.91160979  0.09393955  0.47183043    -0.20400
F733        F  0.86165264  0.08668933  0.45357491    -0.20100
F734        F  0.90773391  0.91867730  0.04703883    -0.20200
F735        F  0.85717059  0.92777011  0.06265223    -0.20500
F736        F  0.89613478  0.95940633  0.08754201    -0.23200
C737        C  0.89494908  0.76419397  0.34888855    -0.06000
C738        C  0.86940241  0.76295567  0.37070738    -0.00100
C739        C  0.84648961  0.73379804  0.36652465    -0.08600
C740        C  0.84918119  0.70874288  0.33933641    -0.06000
C741        C  0.87389447  0.71139282  0.31667423    -0.00100
C742        C  0.89783933  0.73873556  0.32216959    -0.08500
C743        C  0.92641218  0.74138607  0.29972622     0.61800
H744        H  0.91278274  0.78555644  0.35283337     0.12500
H745        H  0.83098438  0.68807091  0.33449771     0.12500
C746        C  0.81891200  0.72902551  0.39006345     0.62100
F747        F  0.94981552  0.76343951  0.31373703    -0.23100
F748        F  0.91822725  0.75745124  0.26979567    -0.20400
F749        F  0.93873488  0.70564625  0.29423118    -0.20100
F750        F  0.79684232  0.70385837  0.37781048    -0.20200
F751        F  0.80381584  0.76327204  0.39527781    -0.20500
F752        F  0.82976319  0.71506703  0.41989328    -0.23200
C753        C  0.84145460  0.76620550  0.06842782    -0.06000
C754        C  0.86742737  0.79031864  0.06395039    -0.00100
C755        C  0.89463256  0.78488519  0.08342495    -0.08600
C756        C  0.89486226  0.75572804  0.10692620    -0.06000
C757        C  0.86904010  0.73140853  0.11147048    -0.00100
C758        C  0.84188629  0.73641153  0.09160555    -0.08500
C759        C  0.81355945  0.71072554  0.09490010     0.61800
H760        H  0.82114092  0.76989964  0.05262372     0.12500
H761        H  0.91560651  0.75162604  0.12209694     0.12500
C762        C  0.92327991  0.80993473  0.07963537     0.62100
F763        F  0.78892398  0.72195056  0.07471701    -0.23100
F764        F  0.80304000  0.71113261  0.12717640    -0.20400
F765        F  0.82184100  0.67415521  0.08620652    -0.20100
F766        F  0.91418451  0.84752011  0.07885578    -0.20200
F767        F  0.93877893  0.80081320  0.05062422    -0.20500
F768        F  0.94416159  0.80552720  0.10566402    -0.23200
C769        C  0.13124238  0.99513687  0.46293092    -0.06000
C770        C  0.12455660  0.96523284  0.48439286    -0.00100
C771        C  0.11800646  0.97498382  0.02012775    -0.08600
C772        C  0.11988073  0.01242546  0.03194669    -0.06000
C773        C  0.12631288  0.04291318  0.01093634    -0.00100
C774        C  0.13326597  0.03295161  0.47402853    -0.08500
C775        C  0.14102254  0.06318450  0.44854183     0.61800
H776        H  0.13677134  0.98831942  0.43743905     0.12500
H777        H  0.11768355  0.01775374  0.05826027     0.12500
C778        C  0.11086981  0.94379295  0.04470239     0.62100
F779        F  0.14159150  0.04879853  0.41659343    -0.23100
F780        F  0.17038667  0.07828773  0.45492179    -0.20400
F781        F  0.11843985  0.09143674  0.44935792    -0.20100
F782        F  0.13847996  0.92599137  0.05393892    -0.20200
F783        F  0.09047093  0.91770075  0.03084637    -0.20500
F784        F  0.09674035  0.95805715  0.07299533    -0.23200
C785        C  0.10742595  0.74104467  0.35341300    -0.06000
C786        C  0.13377275  0.76365278  0.36000348    -0.00100
C787        C  0.16173441  0.75801004  0.34185247    -0.08600
C788        C  0.16177333  0.73121101  0.31614488    -0.06000
C789        C  0.13480198  0.71018121  0.30813820    -0.00100
C790        C  0.10733119  0.71428429  0.32751074    -0.08500
C791        C  0.07864740  0.68960346  0.32176677     0.61800
H792        H  0.08704633  0.74421066  0.36895912     0.12500
H793        H  0.18256177  0.72782739  0.30099695     0.12500
C794        C  0.19104347  0.78105746  0.34894393     0.62100
F795        F  0.05652971  0.69428489  0.34656375    -0.23100
F796        F  0.08760231  0.65193361  0.32119554    -0.20400
F797        F  0.06447866  0.69864161  0.29202644    -0.20100
F798        F  0.20062381  0.77573982  0.38131756    -0.20200
F799        F  0.18451713  0.81889843  0.34405147    -0.20500
F800        F  0.21574512  0.77097733  0.32840207    -0.23200
C801        C  0.10687824  0.76957637  0.06116729    -0.06000
C802        C  0.13158565  0.79591457  0.05835150    -0.00100
C803        C  0.15474282  0.79697899  0.08388879    -0.08600
C804        C  0.15294804  0.77047610  0.10980874    -0.06000
C805        C  0.12915634  0.74297132  0.11158049    -0.00100
C806        C  0.10528003  0.74296268  0.08700488    -0.08500
C807        C  0.07812363  0.71514788  0.08758795     0.61800
H808        H  0.08911747  0.76881330  0.04200225     0.12500
H809        H  0.17091882  0.77046852  0.12877275     0.12500
C810        C  0.18155013  0.82538760  0.08432947     0.62100
F811        F  0.05608823  0.72273704  0.06321461    -0.23100
F812        F  0.06294665  0.71705472  0.11777251    -0.20400
F813        F  0.08933561  0.67885038  0.08235109    -0.20100
F814        F  0.16973553  0.86160991  0.08061718    -0.20200
F815        F  0.20252036  0.81733627  0.05913508    -0.20500
F816        F  0.19814832  0.82457923  0.11385469    -0.23200
C817        C  0.01938097  0.85844200  0.46151476    -0.06000
C818        C  0.03384816  0.83158802  0.44087396    -0.00100
C819        C  0.01497173  0.80601218  0.42239574    -0.08600
C820        C  0.98209286  0.80798610  0.42576221    -0.06000
C821        C  0.96768387  0.83511994  0.44616953    -0.00100
C822        C  0.98653165  0.86074424  0.46455666    -0.08500
C823        C  0.97193400  0.88752684  0.99391997     0.61800
H824        H  0.03388155  0.87847694  0.97926105     0.12500
H825        H  0.96722148  0.78888583  0.41175503     0.12500
C826        C  0.02921341  0.77810041  0.39802581     0.62100
F827        F  0.99435917  0.90216701  0.01526599    -0.23100
F828        F  0.94969888  0.86916880  0.01283415    -0.20400
F829        F  0.95786473  0.91728669  0.97739755    -0.20100
F830        F  0.04672259  0.75137647  0.41487179    -0.20200
F831        F  0.04819772  0.79726103  0.37602501    -0.20500
F832        F  0.00646716  0.75919190  0.37985895    -0.23200
C833        C  0.37782948  0.53716415  0.98242518    -0.06000
C834        C  0.37800437  0.54168684  0.01716097    -0.00100
C835        C  0.38132922  0.50877375  0.03696608    -0.08600
C836        C  0.38083651  0.47290236  0.02132573    -0.06000
C837        C  0.37607802  0.46918938  0.48353368    -0.00100
C838        C  0.36937107  0.50179858  0.46433908    -0.08500
C839        C  0.35969488  0.49928303  0.42809140     0.61800
H840        H  0.37677597  0.56223520  0.96721435     0.12500
H841        H  0.38208321  0.44769935  0.03638711     0.12500
C842        C  0.38480902  0.51088896  0.07436523     0.62100
F843        F  0.35332609  0.53448948  0.41469725    -0.23100
F844        F  0.33280043  0.47767235  0.42495148    -0.20400
F845        F  0.39966151  0.47926765  0.91645239    -0.20100
F846        F  0.37272180  0.52329715  0.58789632    -0.20200
F847        F  0.41022449  0.53346345  0.08246391    -0.20500
F848        F  0.38996814  0.47562643  0.08818131    -0.23200
C849        C  0.25129766  0.79435617  0.99451098    -0.06000
C850        C  0.22499893  0.77059300  0.48673835    -0.00100
C851        C  0.22676804  0.73082516  0.49023229    -0.08600
C852        C  0.25384729  0.71545689  0.50454458    -0.06000
C853        C  0.27858945  0.73822767  0.01261313    -0.00100
C854        C  0.27814002  0.77798125  0.00841388    -0.08500
C855        C  0.30530588  0.80342949  0.01866897     0.61800
H856        H  0.25036303  0.82477483  0.99173106     0.12500
H857        H  0.25570767  0.68503619  0.50688673     0.12500
C858        C  0.20076362  0.70436295  0.47872634     0.62100
F859        F  0.29730673  0.84139818  0.01723945    -0.23100
F860        F  0.33052715  0.79765392  0.99766119    -0.20400
F861        F  0.31417482  0.79572734  0.05089992    -0.20100
F862        F  0.19275329  0.71225945  0.44627606    -0.20200
F863        F  0.17470311  0.70865698  0.49882490    -0.20500
F864        F  0.20986908  0.66673850  0.48008196    -0.23200
C865        C  0.24851769  0.60823040  0.15747411    -0.06000
C866        C  0.22029288  0.61429820  0.13989493    -0.00100
C867        C  0.22197163  0.61764653  0.10475585    -0.08600
C868        C  0.25175392  0.61810917  0.08934198    -0.06000
C869        C  0.27994798  0.61477382  0.10729459    -0.00100
C870        C  0.27822948  0.60794800  0.14189008    -0.08500
C871        C  0.30737669  0.59947084  0.16243863     0.61800
H872        H  0.24737356  0.60498219  0.18408110     0.12500
H873        H  0.25323859  0.62280297  0.06291543     0.12500
C874        C  0.19280580  0.62078198  0.08311771     0.62100
F875        F  0.29971095  0.58599397  0.19350922    -0.23100
F876        F  0.32504145  0.63185542  0.16675802    -0.20400
F877        F  0.32536969  0.57210915  0.14675065    -0.20100
F878        F  0.17861549  0.65567093  0.08772164    -0.20200
F879        F  0.17194715  0.59225227  0.09095675    -0.20500
F880        F  0.19990574  0.61722210  0.04980411    -0.23200
C881        C  0.62668826  0.50573675  0.04216210    -0.06000
C882        C  0.62447655  0.53623581  0.02018699    -0.00100
C883        C  0.61968610  0.53068087  0.48531135    -0.08600
C884        C  0.62115486  0.49281352  0.47460945    -0.06000
C885        C  0.62767308  0.46308975  0.49650267    -0.00100
C886        C  0.62658521  0.46783616  0.03100383    -0.08500
C887        C  0.62860541  0.43656007  0.05673790     0.61800
H888        H  0.63037175  0.51177584  0.06818411     0.12500
H889        H  0.61884123  0.48655201  0.44845130     0.12500
C890        C  0.61264466  0.56101998  0.45987445     0.62100
F891        F  0.62338733  0.45023937  0.08844349    -0.23100
F892        F  0.65816557  0.42016100  0.05632621    -0.20400
F893        F  0.60600807  0.40939064  0.05036952    -0.20100
F894        F  0.64031260  0.57845487  0.45077183    -0.20200
F895        F  0.59188992  0.58745340  0.47277993    -0.20500
F896        F  0.59898441  0.54594418  0.43161698    -0.23200
C897        C  0.72714787  0.76968194  0.02683084    -0.06000
C898        C  0.72224303  0.73426634  0.01247602    -0.00100
C899        C  0.74268305  0.72056574  0.98739824    -0.08600
C900        C  0.77097429  0.74276521  0.48062271    -0.06000
C901        C  0.77708101  0.77738839  0.49583995    -0.00100
C902        C  0.75286138  0.79195363  0.01784450    -0.08500
C903        C  0.76144623  0.83034468  0.53719239     0.61800
H904        H  0.71072337  0.77947961  0.04548415     0.12500
H905        H  0.78693276  0.73274320  0.46168156     0.12500
C906        C  0.73506326  0.68587942  0.96657083     0.62100
F907        F  0.73374094  0.83758433  0.05759684    -0.23100
F908        F  0.76096923  0.85943234  0.51446861    -0.20400
F909        F  0.78545422  0.83154806  0.05076849    -0.20100
F910        F  0.70707241  0.69798045  0.44985088    -0.20200
F911        F  0.73348872  0.65384778  0.98587572    -0.20500
F912        F  0.75737414  0.67934414  0.94227397    -0.23200
C913        C  0.77829619  0.60509282  0.12355422    -0.06000
C914        C  0.77412094  0.61003163  0.15792835    -0.00100
C915        C  0.74292166  0.60989576  0.17049186    -0.08600
C916        C  0.71754770  0.60984763  0.14790809    -0.06000
C917        C  0.72176658  0.60885143  0.11324322    -0.00100
C918        C  0.75284562  0.60394010  0.10101371    -0.08500
C919        C  0.75968374  0.59868706  0.06444657     0.61800
H920        H  0.80203038  0.60382888  0.11405001     0.12500
H921        H  0.69385396  0.61182991  0.15748036     0.12500
C922        C  0.73590217  0.60926540  0.20740998     0.62100
F923        F  0.79131844  0.59247179  0.05843202    -0.23100
F924        F  0.75083495  0.63075253  0.04742138    -0.20400
F925        F  0.74340256  0.56769472  0.05244466    -0.20100
F926        F  0.74246264  0.64399897  0.22162663    -0.20200
F927        F  0.75378227  0.58149063  0.22252595    -0.20500
F928        F  0.70460740  0.60133237  0.21357952    -0.23200
C929        C  0.51993812  0.70357633  0.06246330    -0.06000
C930        C  0.53482357  0.66801908  0.06455136    -0.00100
C931        C  0.51589913  0.63493941  0.06611751    -0.08600
C932        C  0.48309733  0.63911013  0.06545944    -0.06000
C933        C  0.46813910  0.67460023  0.06344673    -0.00100
C934        C  0.48704206  0.70773246  0.06183296    -0.08500
C935        C  0.47328495  0.74747450  0.05937512     0.61800
H936        H  0.53443778  0.72860266  0.06128116     0.12500
H937        H  0.46870559  0.61400166  0.06654412     0.12500
C938        C  0.52953157  0.59509613  0.06849903     0.62100
F939        F  0.49634073  0.77503968  0.05862294    -0.23100
F940        F  0.45449700  0.75494423  0.08652727    -0.20400
F941        F  0.45451932  0.73708524  0.51517262    -0.20100
F942        F  0.54708121  0.59169476  0.09720429    -0.20200
F943        F  0.54812891  0.58753888  0.04118378    -0.20500
F944        F  0.50641740  0.56762971  0.06944240    -0.23200
C945        C  0.60995281  0.98984498  0.27488992    -0.06000
C946        C  0.63415713  0.96545658  0.26432882    -0.00100
C947        C  0.65556498  0.97813549  0.23957601    -0.08600
C948        C  0.65131911  0.01416901  0.22590247    -0.06000
C949        C  0.62808521  0.03887304  0.23732312    -0.00100
C950        C  0.60679032  0.02678037  0.26198377    -0.08500
C951        C  0.58079021  0.05274328  0.27420269     0.61800
H952        H  0.59383995  0.97995522  0.29364524     0.12500
H953        H  0.66757027  0.02445267  0.20741565     0.12500
C954        C  0.68439078  0.95537905  0.22906484     0.62100
F955        F  0.56012254  0.03406384  0.29483771    -0.23100
F956        F  0.56393297  0.06653964  0.24751942    -0.20400
F957        F  0.59353503  0.08274069  0.29164421    -0.20100
F958        F  0.67543414  0.92389679  0.21107953    -0.20200
F959        F  0.70119681  0.94435275  0.25673494    -0.20500
F960        F  0.70445976  0.97617372  0.20931244    -0.23200
C961        C  0.72831060  0.75929625  0.23691812    -0.06000
C962        C  0.73054633  0.77393629  0.26920427    -0.00100
C963        C  0.76035326  0.77741563  0.28454673    -0.08600
C964        C  0.78700444  0.76605011  0.26679058    -0.06000
C965        C  0.78474206  0.75092287  0.23474207    -0.00100
C966        C  0.75516664  0.74833634  0.21912079    -0.08500
C967        C  0.75234872  0.73511327  0.18356301     0.61800
H968        H  0.70540759  0.75782518  0.22524393     0.12500
H969        H  0.80988016  0.76643244  0.27866820     0.12500
C970        C  0.76405659  0.79116147  0.32001196     0.62100
F971        F  0.72145042  0.73476325  0.17279226    -0.23100
F972        F  0.76433145  0.69897265  0.18016559    -0.20400
F973        F  0.76907460  0.75950480  0.16363644    -0.20100
F974        F  0.74316405  0.77244711  0.34035374    -0.20200
F975        F  0.75849130  0.82953904  0.32177229    -0.20500
F976        F  0.79410607  0.78475399  0.33186473    -0.23200
C977        C  0.75060739  0.90489160  0.34876879    -0.06000
C978        C  0.72209953  0.89800135  0.36532940    -0.00100
C979        C  0.72304872  0.89573781  0.40064002    -0.08600
C980        C  0.75237566  0.89698545  0.41719774    -0.06000
C981        C  0.78102083  0.89935602  0.40017466    -0.00100
C982        C  0.78002243  0.90477417  0.36524702    -0.08500
C983        C  0.80974767  0.90941641  0.34490274     0.61800
H984        H  0.75005440  0.90758091  0.32207994     0.12500
H985        H  0.75323247  0.89318860  0.44378268     0.12500
C986        C  0.69374099  0.88979816  0.42122282     0.62100
F987        F  0.80321893  0.92172832  0.31312574    -0.23100
F988        F  0.82528256  0.87509530  0.34235911    -0.20400
F989        F  0.82923169  0.93584184  0.35968000    -0.20100
F990        F  0.68318576  0.85327016  0.41636955    -0.20200
F991        F  0.67070488  0.91555896  0.41230227    -0.20500
F992        F  0.69944461  0.89456255  0.45474145    -0.23200
C993        C  0.63733235  0.72858027  0.38982763    -0.06000
C994        C  0.62836697  0.76688506  0.39427382    -0.00100
C995        C  0.61622866  0.77808902  0.42564110    -0.08600
C996        C  0.61710072  0.75184175  0.45182780    -0.06000
C997        C  0.62758338  0.71428415  0.44758625    -0.00100
C998        C  0.63612425  0.70185858  0.41558975    -0.08500
C999        C  0.64139546  0.66022216  0.40805347     0.61800
H1000       H  0.64495526  0.71919955  0.36560712     0.12500
H1001       H  0.60993677  0.76081437  0.47633774     0.12500
C1002       C  0.60171338  0.81687883  0.43188177     0.62100
F1003       F  0.64458156  0.65349734  0.37443841    -0.23100
F1004       F  0.61575273  0.63993584  0.41901825    -0.20400
F1005       F  0.66821627  0.64714065  0.42355717    -0.20100
F1006       F  0.57626113  0.82202751  0.41101603    -0.20200
F1007       F  0.62352459  0.84497268  0.42651582    -0.20500
F1008       F  0.59102947  0.82089268  0.46406287    -0.23200
C1009       C  0.61189734  0.76624847  0.19349538    -0.06000
C1010       C  0.63656778  0.79273117  0.19608328    -0.00100
C1011       C  0.65841874  0.79509566  0.16957896    -0.08600
C1012       C  0.65648436  0.76841483  0.14359745    -0.06000
C1013       C  0.63304401  0.74040187  0.14230845    -0.00100
C1014       C  0.60941461  0.74041893  0.16702392    -0.08500
C1015       C  0.58121215  0.71409395  0.16549038     0.61800
H1016       H  0.59465235  0.76497901  0.21310145     0.12500
H1017       H  0.67381935  0.76902127  0.12401014     0.12500
C1018       C  0.68308932  0.82600252  0.16764142     0.62100
F1019       F  0.55929221  0.72245397  0.18976786    -0.23100
F1020       F  0.59085435  0.67707861  0.16998890    -0.20400
F1021       F  0.56634319  0.71754912  0.13516613    -0.20100
F1022       F  0.70616894  0.82041515  0.19119509    -0.20200
F1023       F  0.66899052  0.86083449  0.17260327    -0.20500
F1024       F  0.69758781  0.82675838  0.13698493    -0.23200
C1025       C  0.37556587  0.97170930  0.23043360    -0.06000
C1026       C  0.37487594  0.96837714  0.26525627    -0.00100
C1027       C  0.37827088  0.00178511  0.28462542    -0.08600
C1028       C  0.37925946  0.03701383  0.26839576    -0.06000
C1029       C  0.37669681  0.04050711  0.23370648    -0.00100
C1030       C  0.37634218  0.00696155  0.21421856    -0.08500
C1031       C  0.37577265  0.00777562  0.17658476     0.61800
H1032       H  0.37431947  0.94615697  0.21565220     0.12500
H1033       H  0.38078728  0.06259692  0.28311578     0.12500
C1034       C  0.37987244  0.00101360  0.32221192     0.62100
F1035       F  0.37665414  0.97179786  0.16289722    -0.23100
F1036       F  0.40172055  0.02715732  0.16508410    -0.20400
F1037       F  0.34853376  0.02519870  0.16562605    -0.20100
F1038       F  0.40498338  0.97885318  0.33218710    -0.20200
F1039       F  0.35219933  0.98665064  0.33485721    -0.20500
F1040       F  0.38407968  0.03674729  0.33567925    -0.23200
C1041       C  0.39932917  0.74215420  0.44157671    -0.06000
C1042       C  0.37459523  0.71581008  0.44468804    -0.00100
C1043       C  0.35176823  0.71384757  0.41894210    -0.08600
C1044       C  0.35334857  0.73998102  0.39285903    -0.06000
C1045       C  0.37692691  0.76764259  0.39080782    -0.00100
C1046       C  0.40102336  0.76805665  0.41513713    -0.08500
C1047       C  0.42854300  0.79530774  0.41340096     0.61800
H1048       H  0.41699484  0.74342702  0.46082571     0.12500
H1049       H  0.33528467  0.73956325  0.37395528     0.12500
C1050       C  0.32527897  0.68505926  0.41863255     0.62100
F1051       F  0.45111729  0.78757472  0.43719543    -0.23100
F1052       F  0.41803185  0.83193734  0.41846546    -0.20400
F1053       F  0.44284862  0.79260231  0.38276873    -0.20100
F1054       F  0.30351790  0.69411240  0.44281679    -0.20200
F1055       F  0.33726833  0.64916389  0.42402148    -0.20500
F1056       F  0.30961879  0.68426212  0.38856004    -0.23200
C1057       C  0.39502953  0.76135279  0.15097548    -0.06000
C1058       C  0.36682967  0.74482628  0.14041323    -0.00100
C1059       C  0.33812325  0.75574696  0.15533413    -0.08600
C1060       C  0.33896783  0.78135257  0.18202858    -0.06000
C1061       C  0.36735891  0.79706686  0.19350068    -0.00100
C1062       C  0.39577413  0.78804745  0.17691088    -0.08500
C1063       C  0.42665021  0.80689580  0.18592083     0.61800
H1064       H  0.41658181  0.75336205  0.13849911     0.12500
H1065       H  0.31734349  0.78844983  0.19478661     0.12500
C1066       C  0.30683161  0.74009492  0.14341220     0.62100
F1067       F  0.44873881  0.80233222  0.16108189    -0.23100
F1068       F  0.43865071  0.79119919  0.21457558    -0.20400
F1069       F  0.42205280  0.84533845  0.19060894    -0.20100
F1070       F  0.30791884  0.70105213  0.14266997    -0.20200
F1071       F  0.30047899  0.75327085  0.11193872    -0.20500
F1072       F  0.28225214  0.75083864  0.16387400    -0.23200
C1073       C  0.48521521  0.80592696  0.31492712    -0.06000
C1074       C  0.46982448  0.83983760  0.30655308    -0.00100
C1075       C  0.48824523  0.87151509  0.29724614    -0.08600
C1076       C  0.52127676  0.86837377  0.29833294    -0.06000
C1077       C  0.53672855  0.83482028  0.30781456    -0.00100
C1078       C  0.51821505  0.80257766  0.31570294    -0.08500
C1079       C  0.53263418  0.76475205  0.32546802     0.61800
H1080       H  0.47098051  0.78177176  0.32143893     0.12500
H1081       H  0.53544151  0.89261273  0.29183754     0.12500
C1082       C  0.47352186  0.90844693  0.28569567     0.62100
F1083       F  0.51005128  0.73847627  0.33413697    -0.23100
F1084       F  0.55232330  0.76948783  0.35244674    -0.20400
F1085       F  0.54935484  0.74985408  0.29909830    -0.20100
F1086       F  0.49568753  0.93290493  0.27284689    -0.20200
F1087       F  0.45911974  0.92652208  0.31205965    -0.20500
F1088       F  0.45162270  0.90134531  0.26108496    -0.23200
C1089       C  0.25426301  0.79200089  0.25171365    -0.06000
C1090       C  0.27867567  0.77027686  0.26567244    -0.00100
C1091       C  0.27708464  0.73031392  0.26435657    -0.08600
C1092       C  0.25039318  0.71364470  0.25009144    -0.06000
C1093       C  0.22588698  0.73540740  0.23640197    -0.00100
C1094       C  0.22805784  0.77531861  0.23655450    -0.08500
C1095       C  0.20364854  0.80032095  0.21987415     0.61800
H1096       H  0.25614827  0.82254483  0.25209017     0.12500
H1097       H  0.24841750  0.68311384  0.24971494     0.12500
C1098       C  0.30312901  0.70517947  0.27782922     0.62100
F1099       F  0.21385449  0.83732951  0.21705107    -0.23100
F1100       F  0.17620365  0.80061389  0.23813581    -0.20400
F1101       F  0.19753840  0.78692168  0.18829414    -0.20100
F1102       F  0.31070234  0.71601974  0.30980315    -0.20200
F1103       F  0.32938317  0.70799519  0.25787291    -0.20500
F1104       F  0.29437660  0.66749299  0.27856000    -0.23200
C1105       C  0.25421109  0.90473100  0.34643857    -0.06000
C1106       C  0.28139220  0.89091036  0.36257209    -0.00100
C1107       C  0.27849339  0.87905172  0.39622316    -0.08600
C1108       C  0.24867028  0.88021459  0.41141275    -0.06000
C1109       C  0.22150168  0.89199576  0.39462700    -0.00100
C1110       C  0.22435623  0.90554898  0.36180215    -0.08500
C1111       C  0.19636367  0.92219787  0.34345507     0.61800
H1112       H  0.25626843  0.91421923  0.32110624     0.12500
H1113       H  0.24602670  0.87016164  0.43652214     0.12500
C1114       C  0.30612552  0.86416884  0.41637856     0.62100
F1115       F  0.20509442  0.93810499  0.31361174    -0.23100
F1116       F  0.18263133  0.95024418  0.36260808    -0.20400
F1117       F  0.17440576  0.89450376  0.33675505    -0.20100
F1118       F  0.32975635  0.89093791  0.41741168    -0.20200
F1119       F  0.31727955  0.83091273  0.40247932    -0.20500
F1120       F  0.29784728  0.85633297  0.44875328    -0.23200
O1121       O  0.33613292  0.87382122  0.85520906    -0.85600
O1122       O  0.38706664  0.82591667  0.86300697    -0.82600
C1123       C  0.37546326  0.79285251  0.86207509     0.97900
O1124       O  0.36325436  0.78065456  0.83580431    -0.82600
O1125       O  0.33448156  0.77920980  0.77539622    -0.85300
C1126       C  0.30695260  0.79239776  0.77889387     1.02400
O1127       O  0.30262974  0.82578571  0.78857931    -0.78000
O1128       O  0.31315095  0.89692479  0.81163924    -0.78200
C1129       C  0.31212309  0.88852616  0.84216402     1.02400
O1130       O  0.37277399  0.92206948  0.81077774    -0.85600
O1131       O  0.42088144  0.86969430  0.81449048    -0.82600
C1132       C  0.43556920  0.83920686  0.80928261     0.97900
O1133       O  0.42052371  0.80834667  0.80707464    -0.82600
O1134       O  0.38982275  0.81270646  0.74774454    -0.85300
C1135       C  0.36895661  0.81743478  0.72622417     1.02400
O1136       O  0.34406116  0.83527512  0.73395069    -0.78100
O1137       O  0.36072644  0.90480591  0.76038051    -0.78200
C1138       C  0.37079817  0.92965285  0.78007642     1.02400
Cr1139     Cr  0.37804423  0.87124517  0.83361014     1.93700
Cr1140     Cr  0.37608614  0.79859804  0.79224440     1.93200
Cr1141     Cr  0.33254996  0.86464895  0.77540421     1.39100
O1142       O  0.36235413  0.84477955  0.80043190    -1.23300
O1143       O  0.63405334  0.91948113  0.81242881    -0.85600
O1144       O  0.58666011  0.86508984  0.81522398    -0.82600
C1145       C  0.57284122  0.83375168  0.81150145     0.97900
O1146       O  0.58886756  0.80338142  0.81066873    -0.82600
O1147       O  0.62025706  0.80729302  0.75198806    -0.85300
C1148       C  0.64104518  0.81233414  0.73045294     1.02400
O1149       O  0.66565546  0.83034611  0.73851822    -0.78000
O1150       O  0.64663073  0.89904248  0.76313142    -0.78200
C1151       C  0.63813824  0.92561126  0.78160329     1.02400
O1152       O  0.66944795  0.87274884  0.85963066    -0.85600
O1153       O  0.61954200  0.82322897  0.86595178    -0.82600
C1154       C  0.63183557  0.79030786  0.86650945     0.97900
O1155       O  0.64653115  0.77851781  0.84144740    -0.82600
O1156       O  0.67690705  0.77624912  0.78030721    -0.85300
C1157       C  0.70385948  0.79122397  0.78406762     1.02400
O1158       O  0.70585195  0.82394100  0.79560924    -0.78100
O1159       O  0.69335150  0.89484090  0.81637080    -0.78200
C1160       C  0.69343762  0.88784255  0.84723335     1.02400
Cr1161     Cr  0.62859075  0.86852756  0.83621024     1.93700
Cr1162     Cr  0.63400948  0.79451056  0.79689009     1.93200
Cr1163     Cr  0.67564631  0.86105988  0.78000373     1.39100
O1164       O  0.64595907  0.84131950  0.80444890    -1.23300
O1165       O  0.67198980  0.63383407  0.60442556    -0.85600
O1166       O  0.62269894  0.68217672  0.61477994    -0.82600
C1167       C  0.63495526  0.71485116  0.61410527     0.97900
O1168       O  0.64618992  0.72709051  0.58747686    -0.82600
O1169       O  0.66966427  0.72886906  0.52420019    -0.85300
C1170       C  0.69710551  0.71495115  0.52506997     1.02400
O1171       O  0.70178118  0.68193041  0.53484043    -0.78000
O1172       O  0.69377190  0.61169322  0.55942568    -0.78200
C1173       C  0.69537394  0.61893246  0.59032249     1.02400
O1174       O  0.63359553  0.58580112  0.56213759    -0.85600
O1175       O  0.58655466  0.63885708  0.56746829    -0.82600
C1176       C  0.57156104  0.66940631  0.56504858     0.97900
O1177       O  0.58647860  0.70035737  0.56329085    -0.82600
O1178       O  0.61054871  0.69155834  0.00110292    -0.85300
C1179       C  0.62974929  0.68645394  0.97796642     1.02400
O1180       O  0.65497910  0.66816550  0.98363036    -0.78100
O1181       O  0.64244486  0.60256307  0.51114182    -0.78200
C1182       C  0.63348435  0.57808071  0.53136056     1.02400
Cr1183     Cr  0.62966029  0.63686177  0.58487170     1.93700
Cr1184     Cr  0.62961502  0.70975791  0.54468977     1.93200
Cr1185     Cr  0.67133226  0.64306446  0.52403975     1.39100
O1186       O  0.64357454  0.66326767  0.55118634    -1.23300
O1187       O  0.37430099  0.58879365  0.55916216    -0.85600
O1188       O  0.42059223  0.64348134  0.56509206    -0.82600
C1189       C  0.43467392  0.67471282  0.56265260     0.97900
O1190       O  0.41887548  0.70507460  0.56132041    -0.82600
O1191       O  0.39071708  0.69893565  0.99846178    -0.85300
C1192       C  0.37081293  0.69304118  0.97593371     1.02400
O1193       O  0.34632988  0.67437141  0.98281501    -0.78000
O1194       O  0.36255442  0.60702430  0.50912711    -0.78200
C1195       C  0.37201823  0.58146308  0.52831162     1.02400
O1196       O  0.33603271  0.63542634  0.60391849    -0.85600
O1197       O  0.38391229  0.68521305  0.61369576    -0.82600
C1198       C  0.36969860  0.71698292  0.61312729     0.97900
O1199       O  0.35902200  0.72985871  0.58651965    -0.82600
O1200       O  0.33413704  0.73170704  0.52456340    -0.85300
C1201       C  0.30687592  0.71821518  0.52804515     1.02400
O1202       O  0.30358467  0.68510169  0.53837777    -0.78100
O1203       O  0.31367918  0.61364201  0.55938111    -0.78200
C1204       C  0.31256421  0.62054470  0.59027867     1.02400
Cr1205     Cr  0.37781516  0.63979988  0.58322995     1.93700
Cr1206     Cr  0.37514787  0.71340752  0.54361268     1.93200
Cr1207     Cr  0.33380676  0.64676683  0.52437747     1.43900
O1208       O  0.36252868  0.66650814  0.55030198    -1.23300
O1209       O  0.16838414  0.87493507  0.89775464    -0.85600
O1210       O  0.12022728  0.82438856  0.88835408    -0.82600
C1211       C  0.13374952  0.79228014  0.88994562     0.97900
O1212       O  0.14387631  0.77991728  0.91696375    -0.82600
O1213       O  0.17006560  0.78032199  0.97801244    -0.85300
C1214       C  0.19728647  0.79351212  0.97362851     1.02400
O1215       O  0.20062740  0.82679405  0.96366281    -0.78000
O1216       O  0.18948549  0.89810511  0.94251835    -0.78200
C1217       C  0.19158950  0.88999716  0.91200559     1.02400
O1218       O  0.12874798  0.92137917  0.94190847    -0.85600
O1219       O  0.08234579  0.86688144  0.93559033    -0.82600
C1220       C  0.06866239  0.83566495  0.94015757     0.97900
O1221       O  0.08451246  0.80549921  0.94316523    -0.82600
O1222       O  0.11268222  0.80744435  0.50298076    -0.85300
C1223       C  0.13310135  0.81254772  0.52513006     1.02400
O1224       O  0.15745032  0.83144929  0.51814096    -0.78100
O1225       O  0.14125630  0.90447575  0.99239877    -0.78200
C1226       C  0.13063124  0.92887975  0.97281146     1.02400
Cr1227     Cr  0.12593048  0.87036974  0.91819704     1.93700
Cr1228     Cr  0.12867949  0.79798927  0.95986628     1.93200
Cr1229     Cr  0.17020036  0.86497247  0.97756904     1.39100
O1230       O  0.14124375  0.84458999  0.95191667    -1.23300
O1231       O  0.87322154  0.92267876  0.95221718    -0.85600
O1232       O  0.91890607  0.86770431  0.94676679    -0.82600
C1233       C  0.93264795  0.83644296  0.95057592     0.97900
O1234       O  0.91683835  0.80610661  0.95294348    -0.82600
O1235       O  0.89042024  0.81402265  0.51114389    -0.85300
C1236       C  0.87035616  0.81882270  0.53339191     1.02400
O1237       O  0.84567650  0.83772083  0.52691040    -0.78000
O1238       O  0.86325151  0.90559397  0.49923909    -0.78200
C1239       C  0.87236113  0.92976921  0.98327703     1.02400
O1240       O  0.83411715  0.87632347  0.90764575    -0.85600
O1241       O  0.88243354  0.82490563  0.89850833    -0.82600
C1242       C  0.86924736  0.79252841  0.89973864     0.97900
O1243       O  0.85714253  0.78175170  0.92618793    -0.82600
O1244       O  0.82968552  0.78203559  0.98657057    -0.85300
C1245       C  0.80272999  0.79747215  0.98418815     1.02400
O1246       O  0.79993407  0.83096039  0.97479258    -0.78100
O1247       O  0.81319264  0.90080222  0.95211505    -0.78200
C1248       C  0.81124139  0.89252037  0.92147349     1.02400
Cr1249     Cr  0.87604061  0.87135640  0.92846201     1.93700
Cr1250     Cr  0.87214382  0.79876413  0.96915020     1.93200
Cr1251     Cr  0.83193412  0.86713868  0.98777230     1.39100
O1252       O  0.86010566  0.84567548  0.96172363    -1.23300
O1253       O  0.83244313  0.61576055  0.66491358    -0.85600
O1254       O  0.86271225  0.67782955  0.64124855    -0.82600
C1255       C  0.87470774  0.71037853  0.64055923     0.97900
O1256       O  0.88870964  0.72236511  0.66566333    -0.82600
O1257       O  0.83445355  0.73715439  0.70417324    -0.85300
C1258       C  0.81221298  0.72964232  0.72399602     1.02400
O1259       O  0.81278304  0.70058765  0.74191734    -0.78000
O1260       O  0.80235846  0.63878767  0.70404270    -0.78200
C1261       C  0.80536291  0.62265445  0.67627921     1.02400
O1262       O  0.88677711  0.59437895  0.70368037    -0.85600
O1263       O  0.91958816  0.65531134  0.67833824    -0.82600
C1264       C  0.93449696  0.67340059  0.70062358     0.97900
O1265       O  0.92014188  0.69478478  0.72090421    -0.82600
O1266       O  0.87095290  0.72138556  0.75991577    -0.85300
C1267       C  0.86983830  0.69832731  0.78320922     1.02400
O1268       O  0.86192846  0.66433652  0.77764967    -0.78100
O1269       O  0.84962091  0.59887688  0.74115132    -0.78200
C1270       C  0.87186392  0.58077047  0.72794164     1.02400
Cr1271     Cr  0.87446656  0.63833817  0.67498340     1.93700
Cr1272     Cr  0.87713763  0.71448486  0.71222343     1.93200
Cr1273     Cr  0.83428432  0.65160073  0.73851584     1.39100
O1274       O  0.86209081  0.66750875  0.70878583    -1.23300
O1275       O  0.13267550  0.58537691  0.69464949    -0.85600
O1276       O  0.08540001  0.63972936  0.69028621    -0.82600
C1277       C  0.07171449  0.67128011  0.69437279     0.97900
O1278       O  0.08800026  0.70115748  0.69538827    -0.82600
O1279       O  0.11855666  0.69816967  0.75498312    -0.85300
C1280       C  0.13905145  0.69243778  0.77678755     1.02400
O1281       O  0.16346861  0.67334125  0.76970351    -0.78000
O1282       O  0.14566341  0.60278549  0.74476385    -0.78200
C1283       C  0.13545399  0.57773776  0.72524964     1.02400
O1284       O  0.17002377  0.63085456  0.64904115    -0.85600
O1285       O  0.12035265  0.68023147  0.64050814    -0.82600
C1286       C  0.13292237  0.71274148  0.63999188     0.97900
O1287       O  0.14605561  0.72515058  0.66572092    -0.82600
O1288       O  0.17448118  0.72812664  0.72650278    -0.85300
C1289       C  0.20168597  0.71394390  0.72371379     1.02400
O1290       O  0.20527232  0.68004746  0.71509083    -0.78100
O1291       O  0.19290386  0.60881431  0.69327690    -0.78200
C1292       C  0.19386966  0.61630668  0.66258448     1.02400
Cr1293     Cr  0.12831983  0.63566902  0.67091918     1.93700
Cr1294     Cr  0.13264061  0.70961803  0.70998893     1.93200
Cr1295     Cr  0.17437693  0.64240851  0.72891078     1.39100
O1296       O  0.14495368  0.66252807  0.70339561    -1.23300
O1297       O  0.66472996  0.37074889  0.90137517    -0.85600
O1298       O  0.61448199  0.32240915  0.89427707    -0.82600
C1299       C  0.62636999  0.28937544  0.89368706     0.97900
O1300       O  0.63964610  0.27678714  0.91916286    -0.82600
O1301       O  0.66981234  0.27316110  0.97879933    -0.85300
C1302       C  0.69700679  0.28662613  0.97437848     1.02400
O1303       O  0.70032823  0.31961570  0.96374062    -0.78000
O1304       O  0.68912302  0.39199909  0.94477198    -0.78200
C1305       C  0.68905122  0.38509247  0.91389045     1.02400
O1306       O  0.62915759  0.41685058  0.94978426    -0.85600
O1307       O  0.58186662  0.36436095  0.94513785    -0.82600
C1308       C  0.56745819  0.33367635  0.94907434     0.97900
O1309       O  0.58266821  0.30274526  0.95032572    -0.82600
O1310       O  0.61698092  0.30871923  0.51193307    -0.85300
C1311       C  0.63877212  0.31272689  0.53263865     1.02400
O1312       O  0.66366645  0.32976246  0.52407907    -0.78100
O1313       O  0.64663712  0.39997357  0.50032805    -0.78200
C1314       C  0.63230026  0.42268973  0.98085703     1.02400
Cr1315     Cr  0.62382567  0.36692844  0.92478433     1.93700
Cr1316     Cr  0.62766735  0.29282272  0.96367413     1.93200
Cr1317     Cr  0.67147192  0.35809774  0.98047127     1.39100
O1318       O  0.64065668  0.33936320  0.95645373    -1.23300
O1319       O  0.37230356  0.42152639  0.94292910    -0.85600
O1320       O  0.41792563  0.36547418  0.93800421    -0.82600
C1321       C  0.43096689  0.33350184  0.94133062     0.97900
O1322       O  0.41436708  0.30387913  0.94126655    -0.82600
O1323       O  0.39017398  0.30968743  0.50395940    -0.85300
C1324       C  0.37048700  0.31617760  0.52640994     1.02400
O1325       O  0.34594942  0.33531982  0.51973857    -0.78000
O1326       O  0.36135504  0.40445248  0.99337294    -0.78200
C1327       C  0.37075495  0.42938908  0.97360535     1.02400
O1328       O  0.33313448  0.37717113  0.89832118    -0.85600
O1329       O  0.38163330  0.32596947  0.88844768    -0.82600
C1330       C  0.36795348  0.29412604  0.88785726     0.97900
O1331       O  0.35443777  0.28273228  0.91356692    -0.82600
O1332       O  0.32871848  0.28009673  0.97565712    -0.85300
C1333       C  0.30174477  0.29507957  0.97416901     1.02400
O1334       O  0.29865465  0.32915447  0.96610322    -0.78100
O1335       O  0.31200042  0.39961658  0.94365300    -0.78200
C1336       C  0.31019200  0.39269193  0.91281285     1.02400
Cr1337     Cr  0.37513664  0.37092469  0.91914428     1.93700
Cr1338     Cr  0.37018060  0.29706881  0.95744820     1.93200
Cr1339     Cr  0.33111729  0.36578267  0.97857493     1.39100
O1340       O  0.35886682  0.34461027  0.95182253    -1.23300
O1341       O  0.33495609  0.13402669  0.64630365    -0.85600
O1342       O  0.38473639  0.18339581  0.63795352    -0.82600
C1343       C  0.37325334  0.21665886  0.63996517     0.97900
O1344       O  0.36297646  0.22912628  0.66694970    -0.82600
O1345       O  0.33369033  0.22822983  0.72659048    -0.85300
C1346       C  0.30608577  0.21510771  0.72261569     1.02400
O1347       O  0.30220861  0.18166761  0.71287021    -0.78000
O1348       O  0.31379344  0.10993987  0.69042929    -0.78200
C1349       C  0.31225015  0.11732423  0.65975881     1.02400
O1350       O  0.37297453  0.08626577  0.69029035    -0.85600
O1351       O  0.41994546  0.13866958  0.68552318    -0.82600
C1352       C  0.43521505  0.16837353  0.69110297     0.97900
O1353       O  0.42053066  0.19948477  0.69487156    -0.82600
O1354       O  0.38965181  0.19346922  0.75414987    -0.85300
C1355       C  0.36835936  0.19038579  0.77539075     1.02400
O1356       O  0.34345078  0.17303900  0.76756229    -0.78100
O1357       O  0.36184922  0.10382935  0.74089287    -0.78200
C1358       C  0.37153537  0.07878199  0.72110485     1.02400
Cr1359     Cr  0.37706820  0.13736470  0.66723776     1.93700
Cr1360     Cr  0.37584085  0.20926754  0.70992782     1.93200
Cr1361     Cr  0.33269402  0.14321043  0.72613869     1.39100
O1362       O  0.36186776  0.16348780  0.70083096    -1.23300
O1363       O  0.63379083  0.08384903  0.69618310    -0.85600
O1364       O  0.58718309  0.13856303  0.68909003    -0.82600
C1365       C  0.57303988  0.16990745  0.69218881     0.97900
O1366       O  0.58899789  0.20008369  0.69337649    -0.82600
O1367       O  0.61157047  0.19444591  0.75597963    -0.85300
C1368       C  0.62909843  0.18860415  0.78037629     1.02400
O1369       O  0.65437163  0.16998624  0.77642369    -0.78000
O1370       O  0.63915667  0.10110202  0.74793405    -0.78200
C1371       C  0.63264441  0.07618152  0.72686325     1.02400
O1372       O  0.67463863  0.13026410  0.65651241    -0.85600
O1373       O  0.62621037  0.18065690  0.64362897    -0.82600
C1374       C  0.63974697  0.21262906  0.64534401     0.97900
O1375       O  0.65058493  0.22444359  0.67241467    -0.82600
O1376       O  0.67149858  0.22527983  0.73712598    -0.85300
C1377       C  0.69868645  0.21036574  0.73786755     1.02400
O1378       O  0.70277420  0.17717278  0.72794337    -0.78100
O1379       O  0.69309667  0.10712429  0.70279048    -0.78200
C1380       C  0.69675693  0.11440325  0.67221491     1.02400
Cr1381     Cr  0.63124163  0.13494885  0.67357567     1.93700
Cr1382     Cr  0.63165789  0.20783176  0.71414604     1.93200
Cr1383     Cr  0.67027477  0.13989969  0.73680350     1.39100
O1384       O  0.64456689  0.16098792  0.70803555    -1.23300
O1385       O  0.83123448  0.37891505  0.85962366    -0.85600
O1386       O  0.88029885  0.33015241  0.87375458    -0.82600
C1387       C  0.86628037  0.29847869  0.87361712     0.97900
O1388       O  0.85433401  0.28596060  0.84748028    -0.82600
O1389       O  0.83244102  0.28030431  0.78410615    -0.85300
C1390       C  0.80552246  0.29571693  0.78249652     1.02400
O1391       O  0.80218813  0.32988620  0.78947542    -0.78000
O1392       O  0.81212230  0.39958484  0.81263653    -0.78200
C1393       C  0.80868057  0.39286664  0.84345667     1.02400
O1394       O  0.87141403  0.42436332  0.81752151    -0.85600
O1395       O  0.91792633  0.36987319  0.82592889    -0.82600
C1396       C  0.93226295  0.33862425  0.82478572     0.97900
O1397       O  0.91654655  0.30799627  0.82433266    -0.82600
O1398       O  0.89275211  0.30748098  0.76225017    -0.85300
C1399       C  0.87501440  0.31178556  0.73791827     1.02400
O1400       O  0.85094746  0.33319710  0.74060253    -0.78100
O1401       O  0.86572373  0.40502309  0.76664277    -0.78200
C1402       C  0.87236770  0.43123640  0.78666894     1.02400
Cr1403     Cr  0.87433931  0.37415089  0.84197625     1.93700
Cr1404     Cr  0.87309963  0.29880318  0.80501510     1.93200
Cr1405     Cr  0.83500324  0.36597689  0.77919447     1.39100
O1406       O  0.86083535  0.34629260  0.80860789    -1.23300
O1407       O  0.13034326  0.41868960  0.81254923    -0.85600
O1408       O  0.08371667  0.36417884  0.81812975    -0.82600
C1409       C  0.06964814  0.33285255  0.81574017     0.97900
O1410       O  0.08563815  0.30264108  0.81269809    -0.82600
O1411       O  0.11312271  0.30725206  0.75143727    -0.85300
C1412       C  0.13284211  0.31203123  0.72881087     1.02400
O1413       O  0.15760759  0.33088825  0.73502467    -0.78000
O1414       O  0.14041168  0.40107114  0.76180546    -0.78200
C1415       C  0.13192496  0.42649862  0.78188008     1.02400
O1416       O  0.16919610  0.37217523  0.85569319    -0.85600
O1417       O  0.12044729  0.32229413  0.86540454    -0.82600
C1418       C  0.13395508  0.29020277  0.86428634     0.97900
O1419       O  0.14582547  0.27829312  0.83790824    -0.82600
O1420       O  0.17155536  0.27675974  0.77641914    -0.85300
C1421       C  0.19885725  0.29095215  0.77942236     1.02400
O1422       O  0.20189222  0.32457344  0.78859830    -0.78100
O1423       O  0.19014033  0.39542075  0.81103542    -0.78200
C1424       C  0.19178781  0.38868410  0.84190126     1.02400
Cr1425     Cr  0.12695709  0.36771926  0.83563418     1.93700
Cr1426     Cr  0.12981478  0.29457786  0.79518334     1.93200
Cr1427     Cr  0.17023483  0.36184594  0.77580711     1.39100
O1428       O  0.14216297  0.34142940  0.80216907    -1.23300
O1429       O  0.17056747  0.13015937  0.60244240    -0.85600
O1430       O  0.12002711  0.17754945  0.61370982    -0.82600
C1431       C  0.13094125  0.21109183  0.61408226     0.97900
O1432       O  0.14281047  0.22424949  0.58818214    -0.82600
O1433       O  0.17001168  0.22923635  0.52743281    -0.85300
C1434       C  0.19765293  0.21645665  0.53085313     1.02400
O1435       O  0.20162291  0.18287598  0.53993966    -0.78000
O1436       O  0.19258868  0.10969593  0.55727977    -0.78200
C1437       C  0.19403440  0.11580204  0.58819605     1.02400
O1438       O  0.13344744  0.08408550  0.55550737    -0.85600
O1439       O  0.08532919  0.13564978  0.56383314    -0.82600
C1440       C  0.07041303  0.16629477  0.56119562     0.97900
O1441       O  0.08502414  0.19748161  0.55980101    -0.82600
O1442       O  0.11278097  0.19779393  0.99995970    -0.85300
C1443       C  0.13330270  0.19307069  0.97807877     1.02400
O1444       O  0.15864171  0.17607709  0.98535234    -0.78100
O1445       O  0.14468495  0.10544552  0.50634908    -0.78200
C1446       C  0.13531500  0.07890901  0.52419298     1.02400
Cr1447     Cr  0.12839837  0.13356023  0.58178653     1.93700
Cr1448     Cr  0.12889235  0.20858487  0.54420500     1.93200
Cr1449     Cr  0.17257184  0.14451945  0.52369278     1.39100
O1450       O  0.14295326  0.16214070  0.54982625    -1.23300
O1451       O  0.87383393  0.08710618  0.56472879    -0.85600
O1452       O  0.92025671  0.14011911  0.57230414    -0.82600
C1453       C  0.93444016  0.17108682  0.56874368     0.97900
O1454       O  0.91912814  0.20184880  0.56707451    -0.82600
O1455       O  0.88870441  0.19954463  0.00456584    -0.85300
C1456       C  0.86800003  0.19476595  0.98284979     1.02400
O1457       O  0.84331134  0.17672513  0.99004179    -0.78000
O1458       O  0.86290455  0.10669150  0.51476384    -0.78200
C1459       C  0.87324983  0.08129325  0.53347441     1.02400
O1460       O  0.83465378  0.13221946  0.61037853    -0.85600
O1461       O  0.88495027  0.18188498  0.62138600    -0.82600
C1462       C  0.87417244  0.21561953  0.62096088     0.97900
O1463       O  0.86067568  0.22743912  0.59543966    -0.82600
O1464       O  0.83299292  0.23060684  0.53416063    -0.85300
C1465       C  0.80579615  0.21623541  0.53622783     1.02400
O1466       O  0.80258381  0.18269371  0.54558422    -0.78100
O1467       O  0.81436904  0.11012093  0.56478276    -0.78200
C1468       C  0.81184870  0.11675725  0.59546717     1.02400
Cr1469     Cr  0.87720651  0.13706185  0.59016822     1.93700
Cr1470     Cr  0.87478034  0.21141797  0.55153603     1.93200
Cr1471     Cr  0.83338056  0.14507597  0.53100708     1.39100
O1472       O  0.86196841  0.16456995  0.55760436    -1.23300
C1473       C  0.98383489  0.14132381  0.54926174    -0.06000
C1474       C  0.96927302  0.17103750  0.56676803    -0.00100
C1475       C  0.98817228  0.19868044  0.58270372    -0.08600
C1476       C  0.02099483  0.19613073  0.57958655    -0.06000
C1477       C  0.03557650  0.16646000  0.56217342    -0.00100
C1478       C  0.01676334  0.13828897  0.54677862    -0.08500
C1479       C  0.03107600  0.10550000  0.52740956     0.61800
H1480       H  0.96904919  0.12025884  0.53751458     0.12500
H1481       H  0.03573347  0.21715461  0.59144865     0.12500
C1482       C  0.97411414  0.22988044  0.60408916     0.62100
F1483       F  0.00842650  0.08464994  0.51083333    -0.23100
F1484       F  0.04662836  0.08134069  0.54876871    -0.20400
F1485       F  0.05198866  0.11901864  0.50413450    -0.20100
F1486       F  0.95404419  0.21441341  0.62724203    -0.20200
F1487       F  0.95649451  0.25927924  0.07595508    -0.20500
F1488       F  0.99506029  0.25818786  0.11360207    -0.23200
C1489       C  0.14407641  0.27248146  0.64150294    -0.06000
C1490       C  0.12921457  0.23678734  0.64382653    -0.00100
C1491       C  0.11205068  0.22864378  0.67306618    -0.08600
C1492       C  0.11331567  0.25460285  0.69968288    -0.06000
C1493       C  0.12949425  0.28930829  0.69772848    -0.00100
C1494       C  0.14362467  0.29927426  0.66742171    -0.08500
C1495       C  0.15703381  0.33847281  0.66178335     0.61800
H1496       H  0.15628696  0.27972387  0.61894390     0.12500
H1497       H  0.10198554  0.24740731  0.72276322     0.12500
C1498       C  0.09180197  0.19350687  0.67634190     0.62100
F1499       F  0.16184056  0.34539653  0.62846845    -0.23100
F1500       F  0.18551588  0.34205750  0.67797290    -0.20400
F1501       F  0.13627601  0.36563097  0.67349301    -0.20100
F1502       F  0.11044673  0.16140266  0.67540866    -0.20200
F1503       F  0.07006433  0.19236007  0.65083008    -0.20500
F1504       F  0.07524855  0.19318644  0.70581584    -0.23200
C1505       C  0.10505448  0.25576556  0.90740277    -0.06000
C1506       C  0.13398458  0.26474522  0.89292219    -0.00100
C1507       C  0.16177950  0.24662291  0.90386974    -0.08600
C1508       C  0.15984822  0.22168923  0.93053334    -0.06000
C1509       C  0.13116923  0.21371501  0.94627129    -0.00100
C1510       C  0.10293203  0.22976078  0.93358980    -0.08500
C1511       C  0.07067925  0.21898672  0.94658359     0.61800
H1512       H  0.08398929  0.26894165  0.89761609     0.12500
H1513       H  0.18126884  0.20900325  0.93984650     0.12500
C1514       C  0.19356308  0.25400276  0.88803540     0.62100
F1515       F  0.04688277  0.23135396  0.92579361    -0.23100
F1516       F  0.06572335  0.23508630  0.97738717    -0.20400
F1517       F  0.06843480  0.18002665  0.94880923    -0.20100
F1518       F  0.19872404  0.29251206  0.88592244    -0.20200
F1519       F  0.19431578  0.23814507  0.85669436    -0.20500
F1520       F  0.21803381  0.23842084  0.90612333    -0.23200
C1521       C  0.87441512  0.30382831  0.67701177    -0.06000
C1522       C  0.87996719  0.28778227  0.70795900    -0.00100
C1523       C  0.88782620  0.24846378  0.70972581    -0.08600
C1524       C  0.88541760  0.22611577  0.68084258    -0.06000
C1525       C  0.87793445  0.24179461  0.65003126    -0.00100
C1526       C  0.87521436  0.28205164  0.64776532    -0.08500
C1527       C  0.87394072  0.30276186  0.61500564     0.61800
H1528       H  0.86962065  0.33392880  0.67590177     0.12500
H1529       H  0.88920433  0.19586536  0.68220483     0.12500
C1530       C  0.89836315  0.22942251  0.74163701     0.62100
F1531       F  0.87827283  0.34135075  0.61890148    -0.23100
F1532       F  0.84501728  0.29742176  0.60064308    -0.20400
F1533       F  0.89728269  0.28953244  0.59413213    -0.20100
F1534       F  0.87512191  0.23207480  0.76526014    -0.20200
F1535       F  0.92549364  0.24636284  0.75328828    -0.20500
F1536       F  0.90494768  0.19136035  0.73703255    -0.23200
C1537       C  0.89505628  0.25573681  0.91094277    -0.06000
C1538       C  0.86657439  0.27346704  0.90257001    -0.00100
C1539       C  0.83846163  0.26257720  0.91838495    -0.08600
C1540       C  0.84003022  0.23507594  0.94321404    -0.06000
C1541       C  0.86860250  0.21795687  0.95246906    -0.00100
C1542       C  0.89658188  0.22765168  0.93554315    -0.08500
C1543       C  0.92745238  0.20731085  0.94218946     0.61800
H1544       H  0.91603710  0.26351562  0.89744317     0.12500
H1545       H  0.81882772  0.22764201  0.95642432     0.12500
C1546       C  0.80708487  0.28070734  0.90970686     0.62100
F1547       F  0.94993272  0.21599939  0.91870760    -0.23100
F1548       F  0.92273742  0.16860474  0.94126255    -0.20400
F1549       F  0.93918504  0.21753232  0.97285836    -0.20100
F1550       F  0.79920024  0.27250233  0.87725875    -0.20200
F1551       F  0.80912064  0.31947123  0.91367078    -0.20500
F1552       F  0.78303318  0.26784098  0.92972213    -0.23200
C1553       C  0.98221324  0.30430834  0.81215964    -0.06000
C1554       C  0.96752279  0.33750314  0.82391329    -0.00100
C1555       C  0.98679884  0.36841061  0.83391610    -0.08600
C1556       C  0.01965600  0.36492356  0.83104003    -0.06000
C1557       C  0.03440782  0.33217551  0.81846879    -0.00100
C1558       C  0.01520001  0.30095626  0.80907944    -0.08500
C1559       C  0.02891816  0.26440068  0.79522121     0.61800
H1560       H  0.96744268  0.28087162  0.80474199     0.12500
H1561       H  0.03426265  0.38845344  0.83855581     0.12500
C1562       C  0.97332974  0.40524233  0.84767085     0.62100
F1563       F  0.00578371  0.23914990  0.78559393    -0.23100
F1564       F  0.04711697  0.24682721  0.81907353    -0.20400
F1565       F  0.04704485  0.27211748  0.76769247    -0.20100
F1566       F  0.95330668  0.39776223  0.87376589    -0.20200
F1567       F  0.95725759  0.42425449  0.82299062    -0.20500
F1568       F  0.99652927  0.42920867  0.85943217    -0.23200
C1569       C  0.72512571  0.10366558  0.61917266    -0.06000
C1570       C  0.72676357  0.10543997  0.65392929    -0.00100
C1571       C  0.75695440  0.10272315  0.66901179    -0.08600
C1572       C  0.78400641  0.10495103  0.64881988    -0.06000
C1573       C  0.78224392  0.10735037  0.61408684    -0.00100
C1574       C  0.75210478  0.10359639  0.59890138    -0.08500
C1575       C  0.74762424  0.10058017  0.56162235     0.61800
H1576       H  0.70210460  0.10357735  0.60773589     0.12500
H1577       H  0.80702042  0.10569047  0.66026421     0.12500
C1578       C  0.76111898  0.09808367  0.70605364     0.62100
F1579       F  0.71650520  0.09468043  0.55298054    -0.23100
F1580       F  0.76483299  0.07037989  0.54934418    -0.20400
F1581       F  0.75707505  0.13356623  0.54663644    -0.20100
F1582       F  0.74518874  0.06625247  0.71649070    -0.20200
F1583       F  0.74971939  0.12955330  0.72229838    -0.20500
F1584       F  0.79238977  0.09379675  0.71489372    -0.23200
C1585       C  0.77386904  0.23775932  0.78281830    -0.06000
C1586       C  0.77794332  0.27442443  0.77091987    -0.00100
C1587       C  0.75569489  0.29001169  0.74837313    -0.08600
C1588       C  0.72983164  0.26801011  0.73899337    -0.06000
C1589       C  0.72558500  0.23146198  0.75110765    -0.00100
C1590       C  0.74754227  0.21613425  0.77421108    -0.08500
C1591       C  0.74448557  0.17850839  0.79209014     0.61800
H1592       H  0.79092555  0.22637095  0.80015318     0.12500
H1593       H  0.71278079  0.27899909  0.72152209     0.12500
C1594       C  0.75952390  0.32892795  0.73295260     0.62100
F1595       F  0.74659279  0.18470807  0.82587414    -0.23100
F1596       F  0.76893541  0.15493515  0.78270808    -0.20400
F1597       F  0.71653018  0.16011306  0.78631529    -0.20100
F1598       F  0.78906042  0.33204414  0.71910924    -0.20200
F1599       F  0.75544628  0.35675727  0.75667888    -0.20500
F1600       F  0.73771280  0.33538754  0.70810561    -0.23200
C1601       C  0.48642625  0.20072938  0.70117821    -0.06000
C1602       C  0.47055647  0.16721507  0.69248501    -0.00100
C1603       C  0.48886352  0.13424455  0.68527782    -0.08600
C1604       C  0.52187727  0.13706310  0.68539100    -0.06000
C1605       C  0.53773621  0.17081954  0.69311999    -0.00100
C1606       C  0.51953218  0.20319162  0.70213187    -0.08500
C1607       C  0.53438673  0.24024132  0.71329755     0.61800
H1608       H  0.47254294  0.22546614  0.70730348     0.12500
H1609       H  0.53574936  0.11236696  0.67914477     0.12500
C1610       C  0.47435437  0.09586177  0.67737013     0.62100
F1611       F  0.51216181  0.26640157  0.72369688    -0.23100
F1612       F  0.55081740  0.25618927  0.68739445    -0.20400
F1613       F  0.55441464  0.23374950  0.73967214    -0.20100
F1614       F  0.45628691  0.09829581  0.64895393    -0.20200
F1615       F  0.45605332  0.08410998  0.70364391    -0.20500
F1616       F  0.49685733  0.06811738  0.67197729    -0.23200
C1617       C  0.25468469  0.10441674  0.65799005    -0.06000
C1618       C  0.28296816  0.10845247  0.64045493    -0.00100
C1619       C  0.28185001  0.10661267  0.60531725    -0.08600
C1620       C  0.25231649  0.10722619  0.58930484    -0.06000
C1621       C  0.22385576  0.10827550  0.60703463    -0.00100
C1622       C  0.22511325  0.10450019  0.64208961    -0.08500
C1623       C  0.19565614  0.10110442  0.66309203     0.61800
H1624       H  0.25571891  0.10325369  0.68473403     0.12500
H1625       H  0.25146306  0.10860892  0.56253407     0.12500
C1626       C  0.31141603  0.10299227  0.58452693     0.62100
F1627       F  0.20257187  0.08964736  0.69502240    -0.23100
F1628       F  0.17562245  0.07452400  0.64937274    -0.20400
F1629       F  0.18056675  0.13575791  0.66508011    -0.20100
F1630       F  0.33158699  0.07671939  0.59852275    -0.20200
F1631       F  0.32632041  0.13757015  0.58239939    -0.20500
F1632       F  0.30461135  0.09078602  0.55269824    -0.23200
C1633       C  0.28294107  0.25892221  0.76309160    -0.06000
C1634       C  0.27854975  0.23656997  0.73468884    -0.00100
C1635       C  0.24780129  0.23164871  0.72171342    -0.08600
C1636       C  0.22248560  0.24857697  0.73828687    -0.06000
C1637       C  0.22679304  0.27065217  0.76682320    -0.00100
C1638       C  0.25762959  0.27607318  0.77960568    -0.08500
C1639       C  0.26416322  0.29900298  0.81077047     0.61800
H1640       H  0.30649755  0.26198785  0.77294900     0.12500
H1641       H  0.19890214  0.24504517  0.72859866     0.12500
C1642       C  0.24100338  0.20768398  0.69132024     0.62100
F1643       F  0.29492393  0.29492496  0.82153773    -0.23100
F1644       F  0.24470165  0.28727671  0.83601140    -0.20400
F1645       F  0.25916334  0.33689529  0.80460966    -0.20100
F1646       F  0.24143612  0.17008352  0.70023362    -0.20200
F1647       F  0.26311402  0.21395786  0.66699969    -0.20500
F1648       F  0.21176716  0.21580604  0.67793497    -0.23200
C1649       C  0.35253512  0.23379641  0.86052887    -0.06000
C1650       C  0.36902437  0.26833782  0.85830928    -0.00100
C1651       C  0.38649657  0.27575607  0.82906120    -0.08600
C1652       C  0.38678972  0.24824660  0.80375169    -0.06000
C1653       C  0.36983605  0.21418946  0.80586432    -0.00100
C1654       C  0.35237501  0.20675048  0.83487307    -0.08500
C1655       C  0.33350950  0.17064999  0.83906642     0.61800
H1656       H  0.33908549  0.22806494  0.88259753     0.12500
H1657       H  0.39957331  0.25394766  0.78121261     0.12500
C1658       C  0.40453328  0.31236234  0.82372492     0.62100
F1659       F  0.32355932  0.16596105  0.87140355    -0.23100
F1660       F  0.35173523  0.13956802  0.83068959    -0.20400
F1661       F  0.30711432  0.17182946  0.81906779    -0.20100
F1662       F  0.42803817  0.31586434  0.84718471    -0.20200
F1663       F  0.38425599  0.34292541  0.82586402    -0.20500
F1664       F  0.41863570  0.31359972  0.79288071    -0.23200
C1665       C  0.34437207  0.28281863  0.57239841    -0.06000
C1666       C  0.37274029  0.29500982  0.55822216    -0.00100
C1667       C  0.40161067  0.28214352  0.57205743    -0.08600
C1668       C  0.40087346  0.25555041  0.59805721    -0.06000
C1669       C  0.37242440  0.24239482  0.61111400    -0.00100
C1670       C  0.34369703  0.25698513  0.59874459    -0.08500
C1671       C  0.31235855  0.24515952  0.61324953     0.61800
H1672       H  0.32240778  0.29275579  0.56193135     0.12500
H1673       H  0.42262416  0.24504895  0.60863840     0.12500
C1674       C  0.43309449  0.29666484  0.55999557     0.62100
F1675       F  0.28723521  0.25764229  0.59434894    -0.23100
F1676       F  0.30933638  0.26036286  0.64467505    -0.20400
F1677       F  0.31069718  0.20615698  0.61495442    -0.20100
F1678       F  0.43177810  0.33548616  0.55581142    -0.20200
F1679       F  0.44074766  0.27949832  0.53025909    -0.20500
F1680       F  0.45688260  0.28901404  0.58245486    -0.23200
C1681       C  0.25417453  0.29480570  0.00829618    -0.06000
C1682       C  0.27424857  0.27471872  0.98680415    -0.00100
C1683       C  0.28040674  0.23302606  0.50122731    -0.08600
C1684       C  0.25352305  0.21731151  0.51545126    -0.06000
C1685       C  0.22542856  0.23796771  0.51964522    -0.00100
C1686       C  0.22864298  0.27732343  0.02384418    -0.08500
C1687       C  0.20848179  0.29950763  0.04812828     0.61800
H1688       H  0.25910955  0.32429632  0.01344355     0.12500
H1689       H  0.25430759  0.18804177  0.52306449     0.12500
C1690       C  0.30972763  0.20836055  0.49799805     0.62100
F1691       F  0.22088693  0.33492150  0.05475893    -0.23100
F1692       F  0.20654117  0.28013905  0.07772642    -0.20400
F1693       F  0.17864822  0.30444532  0.03522335    -0.20100
F1694       F  0.33337183  0.22239281  0.51806609    -0.20200
F1695       F  0.31965293  0.20749385  0.46541509    -0.20500
F1696       F  0.30438588  0.17133980  0.50752385    -0.23200
C1697       C  0.24881716  0.40605319  0.84411636    -0.06000
C1698       C  0.22089404  0.39824075  0.86141713    -0.00100
C1699       C  0.22228418  0.39708752  0.89665651    -0.08600
C1700       C  0.25190202  0.39718075  0.91238123    -0.06000
C1701       C  0.28011094  0.40018367  0.89458807    -0.00100
C1702       C  0.27838753  0.40752381  0.86008403    -0.08500
C1703       C  0.30736238  0.41732411  0.84006447     0.61800
H1704       H  0.24766521  0.40924084  0.81749101     0.12500
H1705       H  0.25315813  0.39307773  0.93891594     0.12500
C1706       C  0.19298784  0.39627231  0.91811250     0.62100
F1707       F  0.29943422  0.43225091  0.80952409    -0.23100
F1708       F  0.32535902  0.38526644  0.83474734    -0.20400
F1709       F  0.32499964  0.44412768  0.85681162    -0.20100
F1710       F  0.17986523  0.36055251  0.91763725    -0.20200
F1711       F  0.17133435  0.42248728  0.90673197    -0.20500
F1712       F  0.19975490  0.40543268  0.95072142    -0.23200
C1713       C  0.75856933  0.21452046  0.99848009    -0.06000
C1714       C  0.77822129  0.23547496  0.52198954    -0.00100
C1715       C  0.77107031  0.27392138  0.52785549    -0.08600
C1716       C  0.74521296  0.28974265  0.51160941    -0.06000
C1717       C  0.72458892  0.26784701  0.98839045    -0.00100
C1718       C  0.73175438  0.22936593  0.98304373    -0.08500
C1719       C  0.71166112  0.20445086  0.96086897     0.61800
H1720       H  0.76519294  0.18534591  0.99397528     0.12500
H1721       H  0.73918961  0.31913986  0.51601184     0.12500
C1722       C  0.78933007  0.29751918  0.55248793     0.62100
F1723       F  0.72477547  0.16886227  0.95658257    -0.23100
F1724       F  0.70850388  0.22092493  0.93004675    -0.20400
F1725       F  0.68227202  0.19992813  0.97480739    -0.20100
F1726       F  0.81963327  0.30271587  0.54118204    -0.20200
F1727       F  0.78967880  0.27909302  0.58259763    -0.20500
F1728       F  0.77596329  0.33289676  0.55734572    -0.23200
C1729       C  0.74480449  0.40714589  0.90943005    -0.06000
C1730       C  0.71802800  0.39263252  0.89320151    -0.00100
C1731       C  0.72081187  0.38336123  0.85879187    -0.08600
C1732       C  0.75039935  0.38684602  0.84313813    -0.06000
C1733       C  0.77750010  0.39831735  0.86023253    -0.00100
C1734       C  0.77438825  0.41000859  0.89377507    -0.08500
C1735       C  0.80208091  0.42550642  0.91330311     0.61800
H1736       H  0.74287127  0.41485532  0.93531674     0.12500
H1737       H  0.75305966  0.37821159  0.81757298     0.12500
C1738       C  0.69337372  0.36850613  0.83842110     0.62100
F1739       F  0.79252395  0.44284310  0.94241694    -0.23100
F1740       F  0.81779111  0.45215834  0.89471272    -0.20400
F1741       F  0.82249777  0.39652777  0.92146604    -0.20100
F1742       F  0.66857360  0.39385685  0.83994554    -0.20200
F1743       F  0.68415800  0.33363005  0.85031594    -0.20500
F1744       F  0.70108577  0.36378194  0.80536733    -0.23200
C1745       C  0.61054736  0.24703631  0.80749877    -0.06000
C1746       C  0.62325538  0.21042127  0.81120703    -0.00100
C1747       C  0.63449178  0.19923548  0.84255540    -0.08600
C1748       C  0.63555040  0.22627175  0.86806571    -0.06000
C1749       C  0.62401047  0.26359612  0.86424943    -0.00100
C1750       C  0.61040686  0.27385790  0.83337766    -0.08500
C1751       C  0.59637570  0.31279178  0.82694867     0.61800
H1752       H  0.60201091  0.25533060  0.78333631     0.12500
H1753       H  0.64535533  0.21753244  0.89160991     0.12500
C1754       C  0.64544270  0.15936372  0.85048171     0.62100
F1755       F  0.58514747  0.31629984  0.79490267    -0.23100
F1756       F  0.61899066  0.34028743  0.83157940    -0.20400
F1757       F  0.57143907  0.31921955  0.84817440    -0.20100
F1758       F  0.67791095  0.15853433  0.85172304    -0.20200
F1759       F  0.63503801  0.13303084  0.82759073    -0.20500
F1760       F  0.63380116  0.14863067  0.88099167    -0.23200
C1761       C  0.66689592  0.27589794  0.57536237    -0.06000
C1762       C  0.63807666  0.29089737  0.56405947    -0.00100
C1763       C  0.60982674  0.28027653  0.58020749    -0.08600
C1764       C  0.61143201  0.25394299  0.60627230    -0.06000
C1765       C  0.64012243  0.23828168  0.61663640    -0.00100
C1766       C  0.66836414  0.24954515  0.60132785    -0.08500
C1767       C  0.69975037  0.23243650  0.61138232     0.61800
H1768       H  0.68823530  0.28361810  0.56274385     0.12500
H1769       H  0.59026031  0.24534480  0.61883810     0.12500
C1770       C  0.57807419  0.29671986  0.57053088     0.62100
F1771       F  0.72418187  0.24558457  0.59204621    -0.23100
F1772       F  0.69852526  0.19351320  0.60791818    -0.20400
F1773       F  0.70637106  0.24144367  0.64398871    -0.20100
F1774       F  0.56821769  0.28128455  0.54077903    -0.20200
F1775       F  0.58025023  0.33560942  0.56758278    -0.20500
F1776       F  0.55531948  0.28909497  0.59400744    -0.23200
C1777       C  0.51700149  0.30084612  0.93823573    -0.06000
C1778       C  0.53243395  0.33340970  0.94989019    -0.00100
C1779       C  0.51415675  0.36462455  0.96113331    -0.08600
C1780       C  0.48125857  0.36291877  0.95806253    -0.06000
C1781       C  0.46582212  0.33105040  0.94502440    -0.00100
C1782       C  0.48399981  0.29874845  0.93587248    -0.08500
C1783       C  0.46921305  0.26225124  0.92323452     0.61800
H1784       H  0.53117811  0.27701129  0.93032435     0.12500
H1785       H  0.46720568  0.38694035  0.96581630     0.12500
C1786       C  0.53043772  0.40390518  0.47751587     0.62100
F1787       F  0.49158707  0.23592252  0.91353553    -0.23100
F1788       F  0.45033987  0.26957931  0.89612225    -0.20400
F1789       F  0.45147424  0.24605348  0.94804358    -0.20100
F1790       F  0.54381437  0.42068192  0.95277721    -0.20200
F1791       F  0.55042001  0.39298676  0.50282278    -0.20500
F1792       F  0.50764403  0.42730417  0.49110633    -0.23200
C1793       C  0.12624654  0.53474259  0.77318064    -0.06000
C1794       C  0.12905165  0.53883052  0.73856473    -0.00100
C1795       C  0.12818291  0.50563998  0.71853354    -0.08600
C1796       C  0.12682879  0.47008881  0.73407581    -0.06000
C1797       C  0.12686197  0.46582980  0.76875363    -0.00100
C1798       C  0.12509625  0.49902023  0.78874659    -0.08500
C1799       C  0.12274835  0.49737129  0.82627507     0.61800
H1800       H  0.12598540  0.56008980  0.78832089     0.12500
H1801       H  0.12694984  0.44484728  0.71882727     0.12500
C1802       C  0.12987015  0.50692552  0.68094411     0.62100
F1803       F  0.11912479  0.53294469  0.84029203    -0.23100
F1804       F  0.14979525  0.48149507  0.83934516    -0.20400
F1805       F  0.09692536  0.47606223  0.83522331    -0.20100
F1806       F  0.15774634  0.52353363  0.67121892    -0.20200
F1807       F  0.10461716  0.52728258  0.66869842    -0.20500
F1808       F  0.12879404  0.47119068  0.66678474    -0.23200
C1809       C  0.87863838  0.53939228  0.77677329    -0.06000
C1810       C  0.87935551  0.54280456  0.74212344    -0.00100
C1811       C  0.88210608  0.50958486  0.72265275    -0.08600
C1812       C  0.88183422  0.47405545  0.73856102    -0.06000
C1813       C  0.87849478  0.47032230  0.77321905    -0.00100
C1814       C  0.87829272  0.50397170  0.79282827    -0.08500
C1815       C  0.87649695  0.50326650  0.83038680     0.61800
H1816       H  0.87691429  0.56516146  0.79127508     0.12500
H1817       H  0.88295734  0.44863554  0.72358028     0.12500
C1818       C  0.88357018  0.51144121  0.68515987     0.62100
F1819       F  0.87813427  0.53920443  0.84408494    -0.23100
F1820       F  0.90135954  0.48248147  0.84297591    -0.20400
F1821       F  0.84833385  0.48747222  0.84015184    -0.20100
F1822       F  0.91005576  0.53113528  0.67570619    -0.20200
F1823       F  0.85707767  0.52951762  0.67305261    -0.20500
F1824       F  0.88508971  0.47581802  0.67083906    -0.23200
C1825       C  0.98572632  0.70620505  0.69997530    -0.06000
C1826       C  0.96945917  0.67188056  0.70100935    -0.00100
C1827       C  0.98669396  0.63752257  0.70091705    -0.08600
C1828       C  0.01979906  0.63886020  0.69931477    -0.06000
C1829       C  0.03641387  0.67323751  0.69716789    -0.00100
C1830       C  0.01878395  0.70782229  0.69746819    -0.08500
C1831       C  0.03400892  0.74656588  0.69431162     0.61800
H1832       H  0.97195707  0.73204341  0.70005711     0.12500
H1833       H  0.03295978  0.61259865  0.69928430     0.12500
C1834       C  0.97024764  0.59955393  0.70301099     0.62100
F1835       F  0.01200561  0.77551110  0.69349550    -0.23100
F1836       F  0.05105081  0.74830939  0.66523257    -0.20400
F1837       F  0.05351020  0.75327312  0.72109303    -0.20100
F1838       F  0.95341091  0.59303489  0.67427507    -0.20200
F1839       F  0.95006593  0.59943968  0.72981066    -0.20500
F1840       F  0.99132694  0.56998059  0.70692653    -0.23200
C1841       C  0.88166347  0.99879986  0.97501028    -0.06000
C1842       C  0.87978070  0.96829448  0.99702446    -0.00100
C1843       C  0.88420803  0.97496130  0.52860117    -0.08600
C1844       C  0.88299197  0.01244352  0.54037148    -0.06000
C1845       C  0.88135021  0.04339258  0.51893767    -0.00100
C1846       C  0.88226347  0.03669124  0.98614811    -0.08500
C1847       C  0.88597346  0.06784192  0.96061048     0.61800
H1848       H  0.88118657  0.99295137  0.94868695     0.12500
H1849       H  0.88175662  0.01756775  0.56678507     0.12500
C1850       C  0.88719965  0.94354991  0.55403342     0.62100
F1851       F  0.89631921  0.05362667  0.93053037    -0.23100
F1852       F  0.90798733  0.09387206  0.97144563    -0.20400
F1853       F  0.85747095  0.08572647  0.95523910    -0.20100
F1854       F  0.90810764  0.91630298  0.54299380    -0.20200
F1855       F  0.85812775  0.92744462  0.55971350    -0.20500
F1856       F  0.89855206  0.95706182  0.58397777    -0.23200
C1857       C  0.89598061  0.76589551  0.85023166    -0.06000
C1858       C  0.86983942  0.76538290  0.87129212    -0.00100
C1859       C  0.84618336  0.73730182  0.86604595    -0.08600
C1860       C  0.84882756  0.71261570  0.83863415    -0.06000
C1861       C  0.87416592  0.71461233  0.81674045    -0.00100
C1862       C  0.89881808  0.74063165  0.82336141    -0.08500
C1863       C  0.92782523  0.74259937  0.80159262     0.61800
H1864       H  0.91433270  0.78644000  0.85486979     0.12500
H1865       H  0.83015107  0.69285428  0.83297148     0.12500
C1866       C  0.81777415  0.73346822  0.88859157     0.62100
F1867       F  0.95247567  0.76028346  0.81781904    -0.23100
F1868       F  0.92114997  0.76279989  0.77320670    -0.20400
F1869       F  0.93765314  0.70650946  0.79303076    -0.20100
F1870       F  0.79551846  0.70901541  0.87562656    -0.20200
F1871       F  0.80337123  0.76825927  0.89320120    -0.20500
F1872       F  0.82732701  0.71915406  0.91876938    -0.23200
C1873       C  0.84607749  0.76897949  0.56715765    -0.06000
C1874       C  0.87153451  0.79379135  0.56277954    -0.00100
C1875       C  0.89863183  0.78938336  0.58272553    -0.08600
C1876       C  0.89884182  0.76089211  0.60696167    -0.06000
C1877       C  0.87340704  0.73588701  0.61130271    -0.00100
C1878       C  0.84665758  0.73964470  0.59064878    -0.08500
C1879       C  0.81874411  0.71323321  0.59338804     0.61800
H1880       H  0.82597736  0.77175345  0.55099053     0.12500
H1881       H  0.91923411  0.75777564  0.62280539     0.12500
C1882       C  0.92696850  0.81496281  0.57893025     0.62100
F1883       F  0.79496893  0.72253582  0.57138627    -0.23100
F1884       F  0.80657243  0.71502471  0.62501240    -0.20400
F1885       F  0.82818021  0.67657395  0.58651899    -0.20100
F1886       F  0.91758941  0.85236210  0.58114112    -0.20200
F1887       F  0.94104210  0.80856415  0.54862306    -0.20500
F1888       F  0.94930698  0.80858947  0.60326581    -0.23200
C1889       C  0.12674346  0.99828683  0.96442745    -0.06000
C1890       C  0.12382793  0.96759142  0.98600186    -0.00100
C1891       C  0.11630374  0.97386250  0.51767117    -0.08600
C1892       C  0.11921353  0.01137468  0.52921705    -0.06000
C1893       C  0.12877232  0.04102001  0.50853667    -0.00100
C1894       C  0.12775040  0.03595072  0.97598661    -0.08500
C1895       C  0.13133396  0.06729334  0.95046184     0.61800
H1896       H  0.13025429  0.99242581  0.93836401     0.12500
H1897       H  0.11492077  0.01738337  0.55513653     0.12500
C1898       C  0.10585125  0.94385058  0.54191687     0.62100
F1899       F  0.12733045  0.05401907  0.91842711    -0.23100
F1900       F  0.16111701  0.08275873  0.95247235    -0.20400
F1901       F  0.10888119  0.09509647  0.95570581    -0.20100
F1902       F  0.13204118  0.92673609  0.55549501    -0.20200
F1903       F  0.08734439  0.91696535  0.52636306    -0.20500
F1904       F  0.08823315  0.95953481  0.56732765    -0.23200
C1905       C  0.10817262  0.75006390  0.84956145    -0.06000
C1906       C  0.13584507  0.76707247  0.86085741    -0.00100
C1907       C  0.16501625  0.75656970  0.84667874    -0.08600
C1908       C  0.16518020  0.73004714  0.82056799    -0.06000
C1909       C  0.13720861  0.71397661  0.80832672    -0.00100
C1910       C  0.10821046  0.72356142  0.82353792    -0.08500
C1911       C  0.07727519  0.70637664  0.81239583     0.61800
H1912       H  0.08631635  0.75761271  0.86145707     0.12500
H1913       H  0.18717286  0.72290031  0.80855158     0.12500
C1914       C  0.19561277  0.77436384  0.85829060     0.62100
F1915       F  0.05412129  0.71098596  0.83612095    -0.23100
F1916       F  0.08086344  0.66797524  0.80666822    -0.20400
F1917       F  0.06721100  0.72382698  0.78372476    -0.20100
F1918       F  0.20151978  0.76478171  0.89082257    -0.20200
F1919       F  0.19350067  0.81323452  0.85594073    -0.20500
F1920       F  0.22096563  0.76254329  0.83942376    -0.23200
C1921       C  0.11164757  0.75814232  0.55646532    -0.06000
C1922       C  0.13128567  0.79021313  0.55650361    -0.00100
C1923       C  0.15089071  0.79670973  0.58445031    -0.08600
C1924       C  0.15051051  0.77049959  0.61056612    -0.06000
C1925       C  0.13157263  0.73782201  0.61014578    -0.00100
C1926       C  0.11148255  0.73167603  0.58248031    -0.08500
C1927       C  0.08992516  0.69753927  0.57983699     0.61800
H1928       H  0.09697748  0.75300966  0.53502945     0.12500
H1929       H  0.16581225  0.77524768  0.63156759     0.12500
C1930       C  0.17234356  0.83089012  0.58722830     0.62100
F1931       F  0.07188316  0.69813381  0.55128090    -0.23100
F1932       F  0.06954822  0.69698156  0.60646827    -0.20400
F1933       F  0.10766271  0.66466795  0.57920673    -0.20100
F1934       F  0.15568651  0.86336605  0.57984970    -0.20200
F1935       F  0.19740460  0.82697073  0.56571641    -0.20500
F1936       F  0.18443702  0.83522814  0.61886525    -0.23200
C1937       C  0.01921386  0.85938456  0.96501222    -0.06000
C1938       C  0.03380904  0.83440359  0.94271322    -0.00100
C1939       C  0.01497958  0.80919539  0.92375337    -0.08600
C1940       C  0.98211058  0.80973496  0.92810453    -0.06000
C1941       C  0.96752519  0.83524219  0.94993049    -0.00100
C1942       C  0.98633495  0.86023160  0.96906580    -0.08500
C1943       C  0.97221384  0.88967710  0.48804403     0.61800
H1944       H  0.03419175  0.87775396  0.47536479     0.12500
H1945       H  0.96733593  0.79111089  0.91351161     0.12500
C1946       C  0.02922646  0.78364067  0.89749646     0.62100
F1947       F  0.99487860  0.90780314  0.50690038    -0.23100
F1948       F  0.95180322  0.87185845  0.50942410    -0.20400
F1949       F  0.95608768  0.91692881  0.47034049    -0.20100
F1950       F  0.04872913  0.75715881  0.91207675    -0.20200
F1951       F  0.04620890  0.80538568  0.87553354    -0.20500
F1952       F  0.00650707  0.76429245  0.87966502    -0.23200
C1953       C  0.37032583  0.53759093  0.47982056    -0.06000
C1954       C  0.37730030  0.54251983  0.51379305    -0.00100
C1955       C  0.38679474  0.51017059  0.53213229    -0.08600
C1956       C  0.38575105  0.47420232  0.51664940    -0.06000
C1957       C  0.37726068  0.46845104  0.98677541    -0.00100
C1958       C  0.37711308  0.50145661  0.96679203    -0.08500
C1959       C  0.37468181  0.49975938  0.92922173     0.61800
H1960       H  0.36425654  0.56219724  0.46532267     0.12500
H1961       H  0.39159615  0.44922786  0.53083665     0.12500
C1962       C  0.39765501  0.51293254  0.56787423     0.62100
F1963       F  0.37546872  0.53533216  0.91503929    -0.23100
F1964       F  0.34660567  0.48304383  0.92005526    -0.20400
F1965       F  0.38372772  0.48320177  0.40975084    -0.20100
F1966       F  0.35773700  0.52566340  0.08831319    -0.20200
F1967       F  0.42143714  0.53938344  0.57060469    -0.20500
F1968       F  0.40932875  0.47878800  0.57933755    -0.23200
C1969       C  0.25008722  0.79335492  0.49778893    -0.06000
C1970       C  0.22523409  0.77259909  0.98469258    -0.00100
C1971       C  0.22602292  0.73278492  0.98803084    -0.08600
C1972       C  0.25269519  0.71643574  0.00230481    -0.06000
C1973       C  0.27893545  0.73819104  0.51551042    -0.00100
C1974       C  0.27707676  0.77795355  0.51235244    -0.08500
C1975       C  0.30276808  0.80427830  0.52483847     0.61800
H1976       H  0.24825124  0.82378007  0.49545250     0.12500
H1977       H  0.25359966  0.68600955  0.00505505     0.12500
C1978       C  0.19943197  0.70727362  0.97631917     0.62100
F1979       F  0.29348357  0.84185504  0.52404545    -0.23100
F1980       F  0.32922614  0.80063356  0.50524126    -0.20400
F1981       F  0.31025228  0.79560230  0.55726744    -0.20100
F1982       F  0.19097998  0.71641522  0.94426578    -0.20200
F1983       F  0.17374844  0.71136537  0.99696157    -0.20500
F1984       F  0.20806683  0.66946047  0.97644138    -0.23200
C1985       C  0.25231107  0.61337583  0.66116680    -0.06000
C1986       C  0.22389308  0.61065465  0.64351391    -0.00100
C1987       C  0.22532530  0.60599836  0.60854154    -0.08600
C1988       C  0.25488826  0.60709435  0.59260189    -0.06000
C1989       C  0.28316517  0.61311555  0.61001666    -0.00100
C1990       C  0.28185154  0.61497934  0.64533776    -0.08500
C1991       C  0.31102835  0.61982650  0.66682070     0.61800
H1992       H  0.25113045  0.61663148  0.68780092     0.12500
H1993       H  0.25582128  0.60523340  0.56586302     0.12500
C1994       C  0.19594943  0.60031902  0.58772402     0.62100
F1995       F  0.30455184  0.61495709  0.70010779    -0.23100
F1996       F  0.32295905  0.65590716  0.66305209    -0.20400
F1997       F  0.33355243  0.59328700  0.65810322    -0.20100
F1998       F  0.17919762  0.63383727  0.58593586    -0.20200
F1999       F  0.17738101  0.57251795  0.60156823    -0.20500
F2000       F  0.20313020  0.58911811  0.55571950    -0.23200
C2001       C  0.62830000  0.50920534  0.54165132    -0.06000
C2002       C  0.62607972  0.53917595  0.51914484    -0.00100
C2003       C  0.61795886  0.52841312  0.98620350    -0.08600
C2004       C  0.61892117  0.49074884  0.97487939    -0.06000
C2005       C  0.62513493  0.46044583  0.99617244    -0.00100
C2006       C  0.62864266  0.47117007  0.53116790    -0.08500
C2007       C  0.63103869  0.44056704  0.55743394     0.61800
H2008       H  0.63176406  0.51575750  0.56761443     0.12500
H2009       H  0.61648710  0.48506408  0.94863896     0.12500
C2010       C  0.61148325  0.55928763  0.96108540     0.62100
F2011       F  0.62481635  0.45470290  0.58878246    -0.23100
F2012       F  0.66107768  0.42548216  0.55779532    -0.20400
F2013       F  0.60935442  0.41233035  0.55112609    -0.20100
F2014       F  0.63948474  0.57607995  0.95216539    -0.20200
F2015       F  0.59120440  0.58609748  0.97422277    -0.20500
F2016       F  0.59757867  0.54497700  0.93266292    -0.23200
C2017       C  0.72986433  0.77111047  0.52861256    -0.06000
C2018       C  0.72382632  0.73649995  0.51329429    -0.00100
C2019       C  0.74376985  0.72256439  0.48787192    -0.08600
C2020       C  0.76928498  0.74182488  0.97968402    -0.06000
C2021       C  0.77452801  0.77705252  0.99429335    -0.00100
C2022       C  0.75610096  0.79254775  0.51991035    -0.08500
C2023       C  0.75699424  0.83033807  0.03445097     0.61800
H2024       H  0.71388369  0.78095623  0.54767595     0.12500
H2025       H  0.78567884  0.73178691  0.96121033     0.12500
C2026       C  0.73481715  0.68929917  0.46586568     0.62100
F2027       F  0.73846013  0.83805064  0.56051881    -0.23100
F2028       F  0.75566271  0.85880413  0.01116741    -0.20400
F2029       F  0.78994600  0.82992375  0.55346328    -0.20100
F2030       F  0.70659077  0.69167596  0.95099792    -0.20200
F2031       F  0.73108559  0.65667091  0.48403453    -0.20500
F2032       F  0.75729489  0.68195915  0.44191186    -0.23200
C2033       C  0.78097465  0.60970679  0.62084989    -0.06000
C2034       C  0.77692675  0.61381756  0.65533472    -0.00100
C2035       C  0.74590632  0.61157075  0.66811766    -0.08600
C2036       C  0.72032193  0.61105168  0.64582679    -0.06000
C2037       C  0.72421444  0.61111275  0.61113491    -0.00100
C2038       C  0.75531027  0.60759701  0.59853522    -0.08500
C2039       C  0.76186921  0.60262190  0.56187604     0.61800
H2040       H  0.80465720  0.60970249  0.61115827     0.12500
H2041       H  0.69669349  0.61179526  0.65570316     0.12500
C2042       C  0.73933209  0.60926951  0.70502157     0.62100
F2043       F  0.79352838  0.59701223  0.55556440    -0.23100
F2044       F  0.75242781  0.63453839  0.54499408    -0.20400
F2045       F  0.74589620  0.57136020  0.54993814    -0.20100
F2046       F  0.74338412  0.64430956  0.71972107    -0.20200
F2047       F  0.75936771  0.58323997  0.71953953    -0.20500
F2048       F  0.70885195  0.59767908  0.71119761    -0.23200
C2049       C  0.52132234  0.70329553  0.55505830    -0.06000
C2050       C  0.53648632  0.66963993  0.56469794    -0.00100
C2051       C  0.51785178  0.63791924  0.57364227    -0.08600
C2052       C  0.48499764  0.64158251  0.57282226    -0.06000
C2053       C  0.46977751  0.67511153  0.56304224    -0.00100
C2054       C  0.48837132  0.70673218  0.55376780    -0.08500
C2055       C  0.47411299  0.74382777  0.54188323     0.61800
H2056       H  0.53564654  0.72720627  0.54812039     0.12500
H2057       H  0.47075760  0.61768303  0.57993460     0.12500
C2058       C  0.53190393  0.60013149  0.58422000     0.62100
F2059       F  0.49680104  0.76925600  0.53173394    -0.23100
F2060       F  0.45733792  0.76079868  0.56724389    -0.20400
F2061       F  0.45584212  0.75074268  0.03059168    -0.20100
F2062       F  0.55149195  0.60536445  0.61122191    -0.20200
F2063       F  0.54855942  0.58424035  0.55822943    -0.20500
F2064       F  0.50910491  0.57434214  0.59333056    -0.23200
C2065       C  0.61086714  0.98819612  0.77579690    -0.06000
C2066       C  0.63571740  0.96397884  0.76670236    -0.00100
C2067       C  0.65803202  0.97654462  0.74279447    -0.08600
C2068       C  0.65412278  0.01233669  0.72854199    -0.06000
C2069       C  0.63000181  0.03673825  0.73826149    -0.00100
C2070       C  0.60779701  0.02476218  0.76204435    -0.08500
C2071       C  0.58097139  0.05051290  0.77243491     0.61800
H2072       H  0.59404832  0.97839468  0.79389115     0.12500
H2073       H  0.67103083  0.02252723  0.71067585     0.12500
C2074       C  0.68712599  0.95364833  0.73338828     0.62100
F2075       F  0.55923056  0.03167955  0.79169335    -0.23100
F2076       F  0.56562938  0.06411988  0.74467236    -0.20400
F2077       F  0.59255272  0.08066101  0.79057843    -0.20100
F2078       F  0.67865422  0.92255006  0.71462942    -0.20200
F2079       F  0.70271894  0.94197317  0.76161272    -0.20500
F2080       F  0.70814882  0.97455145  0.71485950    -0.23200
C2081       C  0.72962902  0.75932523  0.73686456    -0.06000
C2082       C  0.73244118  0.77495541  0.76879072    -0.00100
C2083       C  0.76282369  0.78160134  0.78214205    -0.08600
C2084       C  0.78921630  0.77268679  0.76288309    -0.06000
C2085       C  0.78644416  0.75573467  0.73163093    -0.00100
C2086       C  0.75627371  0.74998951  0.71784556    -0.08500
C2087       C  0.75251794  0.73524898  0.68278136     0.61800
H2088       H  0.70636425  0.75573395  0.72640534     0.12500
H2089       H  0.81255936  0.77570322  0.77337180     0.12500
C2090       C  0.76769825  0.79592198  0.81727582     0.62100
F2091       F  0.72123382  0.73121794  0.67401203    -0.23100
F2092       F  0.76693041  0.70044461  0.67937347    -0.20400
F2093       F  0.76623910  0.76050220  0.66119466    -0.20100
F2094       F  0.74862270  0.77621918  0.83883713    -0.20200
F2095       F  0.76072098  0.83396277  0.81904656    -0.20500
F2096       F  0.79850066  0.79134108  0.82758583    -0.23200
C2097       C  0.75036133  0.90539089  0.85175086    -0.06000
C2098       C  0.72230144  0.89574501  0.86813162    -0.00100
C2099       C  0.72361799  0.89088709  0.90322673    -0.08600
C2100       C  0.75291084  0.89333929  0.91963194    -0.06000
C2101       C  0.78122149  0.89880963  0.90261201    -0.00100
C2102       C  0.77986056  0.90591541  0.86799201    -0.08500
C2103       C  0.80929691  0.91332242  0.84781579     0.61800
H2104       H  0.74947420  0.90993131  0.82527625     0.12500
H2105       H  0.75419309  0.88807703  0.94599066     0.12500
C2106       C  0.69486987  0.88123305  0.92367652     0.62100
F2107       F  0.80218307  0.92591377  0.81626037    -0.23100
F2108       F  0.82663208  0.88034765  0.84461797    -0.20400
F2109       F  0.82733001  0.94076429  0.86320618    -0.20100
F2110       F  0.68523870  0.84492759  0.91594072    -0.20200
F2111       F  0.67095762  0.90685272  0.91740032    -0.20500
F2112       F  0.70099168  0.88244161  0.95734535    -0.23200
C2113       C  0.63657557  0.72543456  0.89025990    -0.06000
C2114       C  0.62801385  0.76380098  0.89526804    -0.00100
C2115       C  0.61559362  0.77445931  0.92665026    -0.08600
C2116       C  0.61585311  0.74760529  0.95235338    -0.06000
C2117       C  0.62622894  0.71006894  0.94767880    -0.00100
C2118       C  0.63496867  0.69817932  0.91559165    -0.08500
C2119       C  0.64016015  0.65664865  0.90749618     0.61800
H2120       H  0.64428114  0.71648642  0.86594737     0.12500
H2121       H  0.60849923  0.75616266  0.97691228     0.12500
C2122       C  0.60172378  0.81344212  0.93351245     0.62100
F2123       F  0.64448729  0.65067831  0.87391705    -0.23100
F2124       F  0.61400919  0.63637624  0.91710309    -0.20400
F2125       F  0.66632028  0.64288165  0.92375838    -0.20100
F2126       F  0.57653159  0.81979855  0.91255299    -0.20200
F2127       F  0.62415312  0.84102458  0.92887362    -0.20500
F2128       F  0.59083833  0.81693368  0.96567202    -0.23200
C2129       C  0.61478580  0.76336899  0.69618548    -0.06000
C2130       C  0.63828776  0.79138112  0.69826800    -0.00100
C2131       C  0.65963948  0.79509697  0.67146253    -0.08600
C2132       C  0.65778491  0.76907577  0.64499837    -0.06000
C2133       C  0.63523116  0.74001173  0.64383996    -0.00100
C2134       C  0.61271974  0.73769035  0.66961089    -0.08500
C2135       C  0.58634956  0.70865899  0.66940249     0.61800
H2136       H  0.59825323  0.76069003  0.71634726     0.12500
H2137       H  0.67449354  0.77104738  0.62489432     0.12500
C2138       C  0.68366757  0.82677202  0.66976944     0.62100
F2139       F  0.56541178  0.71429351  0.69517087    -0.23100
F2140       F  0.59879445  0.67266442  0.67267347    -0.20400
F2141       F  0.56949851  0.71110027  0.64016124    -0.20100
F2142       F  0.70665615  0.82193301  0.69356163    -0.20200
F2143       F  0.66873145  0.86113516  0.67455873    -0.20500
F2144       F  0.69852100  0.82795898  0.63932592    -0.23200
C2145       C  0.38055818  0.97144081  0.73175726    -0.06000
C2146       C  0.37777866  0.96814477  0.76644567    -0.00100
C2147       C  0.37907095  0.00162737  0.78594179    -0.08600
C2148       C  0.37932177  0.03685002  0.76973902    -0.06000
C2149       C  0.37831673  0.04020089  0.73492756    -0.00100
C2150       C  0.38098608  0.00671542  0.71555156    -0.08500
C2151       C  0.38343827  0.00752867  0.67803463     0.61800
H2152       H  0.38114560  0.94579859  0.71702982     0.12500
H2153       H  0.37897476  0.06242413  0.78454964     0.12500
C2154       C  0.37916380  0.00087107  0.82357495     0.62100
F2155       F  0.38833412  0.97180638  0.66474778    -0.23100
F2156       F  0.40856643  0.02983905  0.66880320    -0.20400
F2157       F  0.35594786  0.02174762  0.66456121    -0.20100
F2158       F  0.40441206  0.97963899  0.83466916    -0.20200
F2159       F  0.35139266  0.98547234  0.83499111    -0.20500
F2160       F  0.38193793  0.03673055  0.83720270    -0.23200
C2161       C  0.39954171  0.73821300  0.93983820    -0.06000
C2162       C  0.37348893  0.71400121  0.94387525    -0.00100
C2163       C  0.34904147  0.71508244  0.91969477    -0.08600
C2164       C  0.35092013  0.74174029  0.89409039    -0.06000
C2165       C  0.37602456  0.76715667  0.89118070    -0.00100
C2166       C  0.40128034  0.76482354  0.91399231    -0.08500
C2167       C  0.43016793  0.78970429  0.91099336     0.61800
H2168       H  0.41833312  0.73715140  0.95788939     0.12500
H2169       H  0.33202731  0.74362433  0.87626508     0.12500
C2170       C  0.32039952  0.68939328  0.92067376     0.62100
F2171       F  0.45310606  0.78026959  0.93389796    -0.23100
F2172       F  0.42198864  0.82714171  0.91623346    -0.20400
F2173       F  0.44305019  0.78561240  0.87979785    -0.20100
F2174       F  0.30144894  0.69932521  0.94706523    -0.20200
F2175       F  0.32979341  0.65203489  0.92347844    -0.20500
F2176       F  0.30231972  0.69217682  0.89224944    -0.23200
C2177       C  0.39702666  0.75208559  0.65683456    -0.06000
C2178       C  0.36827150  0.74161876  0.64260213    -0.00100
C2179       C  0.34010306  0.75918368  0.65376208    -0.08600
C2180       C  0.34195053  0.78598615  0.67943721    -0.06000
C2181       C  0.37061907  0.79562941  0.69463945    -0.00100
C2182       C  0.39889550  0.77928416  0.68230786    -0.08500
C2183       C  0.43111654  0.79056446  0.69521575     0.61800
H2184       H  0.41831244  0.73921143  0.64726659     0.12500
H2185       H  0.32026104  0.79819030  0.68870992     0.12500
C2186       C  0.30727985  0.75031584  0.64084931     0.62100
F2187       F  0.45476552  0.77950058  0.67370564    -0.23100
F2188       F  0.43672707  0.77355314  0.72541529    -0.20400
F2189       F  0.43279310  0.82947735  0.69869261    -0.20100
F2190       F  0.30653249  0.72185352  0.61734725    -0.20200
F2191       F  0.29440325  0.78268641  0.62717767    -0.20500
F2192       F  0.28853849  0.73911503  0.66696702    -0.23200
C2193       C  0.48600075  0.80443432  0.81572187    -0.06000
C2194       C  0.47072484  0.83854793  0.80770572    -0.00100
C2195       C  0.48930444  0.87020198  0.79861063    -0.08600
C2196       C  0.52233702  0.86679825  0.79965475    -0.06000
C2197       C  0.53765589  0.83311406  0.80909342    -0.00100
C2198       C  0.51899351  0.80099612  0.81686789    -0.08500
C2199       C  0.53326717  0.76335235  0.82731074     0.61800
H2200       H  0.47169284  0.78022677  0.82184134     0.12500
H2201       H  0.53661667  0.89095291  0.79321673     0.12500
C2202       C  0.47477267  0.90730181  0.78712207     0.62100
F2203       F  0.51055422  0.73714519  0.83574787    -0.23100
F2204       F  0.55237411  0.76859339  0.85468272    -0.20400
F2205       F  0.55057069  0.74810988  0.80152107    -0.20100
F2206       F  0.49716396  0.93202843  0.77511499    -0.20200
F2207       F  0.45974713  0.92505595  0.81326327    -0.20500
F2208       F  0.45345049  0.90044772  0.76190320    -0.23200
C2209       C  0.26202353  0.78963446  0.74140849    -0.06000
C2210       C  0.27995546  0.77155241  0.76594269    -0.00100
C2211       C  0.27234140  0.73469053  0.77623026    -0.08600
C2212       C  0.24697898  0.71653878  0.76081200    -0.06000
C2213       C  0.22901244  0.73459956  0.73624687    -0.00100
C2214       C  0.23639511  0.77172191  0.72627733    -0.08500
C2215       C  0.21817156  0.79167252  0.69908846     0.61800
H2216       H  0.26860549  0.81789340  0.73386969     0.12500
H2217       H  0.24036728  0.68834542  0.76850488     0.12500
C2218       C  0.28975323  0.71569102  0.80445767     0.62100
F2219       F  0.23128068  0.82630446  0.69128133    -0.23100
F2220       F  0.18754774  0.79804839  0.70906087    -0.20400
F2221       F  0.21817486  0.76949352  0.67079527    -0.20100
F2222       F  0.28858137  0.73874837  0.83217094    -0.20200
F2223       F  0.32076069  0.70946625  0.79582064    -0.20500
F2224       F  0.27659175  0.68118921  0.81256778    -0.23200
C2225       C  0.25426584  0.90261878  0.84430121    -0.06000
C2226       C  0.28219164  0.89428066  0.86179355    -0.00100
C2227       C  0.28003803  0.88933173  0.89679626    -0.08600
C2228       C  0.25011624  0.88997929  0.91199618    -0.06000
C2229       C  0.22215371  0.89553753  0.89403981    -0.00100
C2230       C  0.22440194  0.90361079  0.85971501    -0.08500
C2231       C  0.19561577  0.91391248  0.83929553     0.61800
H2232       H  0.25570923  0.90709181  0.81786485     0.12500
H2233       H  0.24823808  0.88432581  0.93823059     0.12500
C2234       C  0.30879889  0.88301799  0.91855106     0.62100
F2235       F  0.20381705  0.92869890  0.80884531    -0.23100
F2236       F  0.17794235  0.94092315  0.85582963    -0.20400
F2237       F  0.17742523  0.88221712  0.83369449    -0.20100
F2238       F  0.33070501  0.91107378  0.91281366    -0.20200
F2239       F  0.32185811  0.84789741  0.91195496    -0.20500
F2240       F  0.30141998  0.88415747  0.95190813    -0.23200
loop_ 
_geom_bond_atom_site_label_1 
_geom_bond_atom_site_label_2 
_geom_bond_distance 
_geom_bond_site_symmetry_2 
_ccdc_geom_bond_type 
O1          Cr19   1.984       .  S
O1            C9   1.258       .  A
O2          Cr19   2.034       .  S
O2            C3   1.271       .  A
C3            O4   1.258       .  A
C3         C1045   1.494       .  S
O4          Cr20   1.958       .  S
O5          Cr20   2.019       .  S
O5            C6   1.267       .  A
C6            O7   1.256       .  A
C6         C1090   1.477       .  S
O7          Cr21   1.956       .  S
O8          Cr21   2.019       .  S
O8            C9   1.268       .  A
C9         C1106   1.511       .  S
O10         Cr19   2.038       .  S
O10          C18   1.274       .  A
O11         Cr19   1.979       .  S
O11          C12   1.261       .  A
C12          O13   1.269       .  A
C12        C1074   1.496       .  S
O13         Cr20   2.012       .  S
O14         Cr20   1.965       .  S
O14          C15   1.256       .  A
C15          O16   1.268       .  A
C15        C1061   1.483       .  S
O16         Cr21   2.019       .  S
O17         Cr21   1.961       .  S
O17          C18   1.259       .  A
C18        C1026   1.504       .  S
Cr19         O22   1.765       .  S
Cr20         O22   1.763       .  S
Cr21         O22   1.766       .  S
O23         Cr41   2.054       .  S
O23          C31   1.277       .  A
O24         Cr41   1.981       .  S
O24          C25   1.265       .  A
C25          O26   1.268       .  A
C25        C1077   1.499       .  S
O26         Cr42   2.017       .  S
O27         Cr42   1.963       .  S
O27          C28   1.257       .  A
C28          O29   1.269       .  A
C28        C1010   1.501       .  S
O29         Cr43   2.041       .  S
O30         Cr43   1.948       .  S
O30          C31   1.250       .  A
C31         C946   1.489       .  S
O32         Cr41   1.987       .  S
O32          C40   1.260       .  A
O33         Cr41   2.040       .  S
O33          C34   1.273       .  A
C34          O35   1.259       .  A
C34         C994   1.504       .  S
O35         Cr42   1.961       .  S
O36         Cr42   2.031       .  S
O36          C37   1.270       .  A
C37          O38   1.249       .  A
C37         C962   1.468       .  S
O38         Cr43   1.941       .  S
O39         Cr43   2.037       .  S
O39          C40   1.273       .  A
C40         C978   1.518       .  S
Cr41         O44   1.762       .  S
Cr42         O44   1.759       .  S
Cr43         O44   1.756       .  S
O45         Cr63   1.965       .  S
O45          C53   1.259       .  A
O46         Cr63   2.033       .  S
O46          C47   1.272       .  A
C47          O48   1.258       .  A
C47        C1013   1.493       .  S
O48         Cr64   1.960       .  S
O49         Cr64   2.018       .  S
O49          C50   1.266       .  A
C50          O51   1.251       .  A
C50         C898   1.458       .  S
O51         Cr65   1.945       .  S
O52         Cr65   2.046       .  S
O52          C53   1.275       .  A
C53         C917   1.511       .  S
O54         Cr63   2.040       .  S
O54          C62   1.274       .  A
O55         Cr63   1.964       .  S
O55          C56   1.256       .  A
C56          O57   1.267       .  A
C56         C930   1.493       .  S
O57         Cr64   2.009       .  S
O58       Cr1184   1.962       .  S
O58          C59   1.256       .  A
C59          O60   1.272       .  A
C59         C997   1.492       .  S
O60       Cr1185   2.043       .  S
O61         Cr65   1.953       .  S
O61          C62   1.253       .  A
C62         C882   1.497       .  S
Cr63         O66   1.761       .  S
Cr64       O1178   1.961       .  S
Cr64         O66   1.764       .  S
Cr65       O1180   2.045   1_554  S
Cr65         O66   1.762       .  S
O67         Cr85   2.044       .  S
O67          C75   1.274       .  A
O68         Cr85   1.966       .  S
O68          C69   1.262       .  A
C69          O70   1.265       .  A
C69         C933   1.495       .  S
O70         Cr86   2.009       .  S
O71       Cr1206   1.967       .  S
O71          C72   1.259       .  A
C72          O73   1.270       .  A
C72        C1042   1.502       .  S
O73       Cr1207   2.032       .  S
O74         Cr87   1.957       .  S
O74          C75   1.258       .  A
C75         C834   1.507       .  S
O76         Cr85   1.981       .  S
O76          C84   1.258       .  A
O77         Cr85   2.032       .  S
O77          C78   1.272       .  A
C78          O79   1.253       .  A
C78        C1058   1.472       .  S
O79         Cr86   1.957       .  S
O80         Cr86   2.002       .  S
O80          C81   1.262       .  A
C81          O82   1.255       .  A
C81         C853   1.470       .  S
O82         Cr87   1.951       .  S
O83         Cr87   2.023       .  S
O83          C84   1.269       .  A
C84         C869   1.500       .  S
Cr85         O88   1.761       .  S
Cr86       O1191   1.969   1_554  S
Cr86         O88   1.766       .  S
Cr87       O1193   2.023   1_554  S
Cr87         O88   1.756       .  S
O89        Cr107   1.987       .  S
O89          C97   1.259       .  A
O90        Cr107   2.033       .  S
O90          C91   1.271       .  A
C91          O92   1.253       .  A
C91         C786   1.470       .  S
O92        Cr108   1.953       .  S
O93        Cr108   2.012       .  S
O93          C94   1.265       .  A
C94          O95   1.254       .  A
C94         C850   1.473       .  S
O95        Cr109   1.950       .  S
O96        Cr109   2.018       .  S
O96          C97   1.268       .  A
C97        C1109   1.494       .  S
O98        Cr107   2.040       .  S
O98         C106   1.277       .  A
O99        Cr107   1.976       .  S
O99         C100   1.262       .  A
C100        O101   1.267       .  A
C100        C818   1.481       .  S
O101       Cr108   2.015       .  S
O102      Cr1228   1.971   1_554  S
O102        C103   1.260       .  A
C103        O104   1.268       .  A
C103        C802   1.505       .  S
O104      Cr1229   2.033   1_554  S
O105       Cr109   1.963       .  S
O105        C106   1.258       .  A
C106        C770   1.495       .  S
Cr107       O110   1.764       .  S
Cr108      O1222   1.968       .  S
Cr108       O110   1.766       .  S
Cr109      O1224   2.028       .  S
Cr109       O110   1.762       .  S
O111       Cr129   2.058       .  S
O111        C119   1.280       .  A
O112       Cr129   1.967       .  S
O112        C113   1.257       .  A
C113        O114   1.268       .  A
C113        C821   1.479       .  S
O114       Cr130   2.018       .  S
O115      Cr1250   1.956   1_554  S
O115        C116   1.252       .  A
C116        O117   1.269       .  A
C116        C754   1.483       .  S
O117      Cr1251   2.039   1_554  S
O118      Cr1251   1.954   1_554  S
O118       C1239   1.254   1_554  A
C119       O1238   1.250       .  A
C119        C722   1.501       .  S
O120       Cr129   1.979       .  S
O120        C128   1.257       .  A
O121       Cr129   2.052       .  S
O121        C122   1.279       .  A
C122        O123   1.251       .  A
C122        C738   1.494       .  S
O123       Cr130   1.945       .  S
O124       Cr130   2.024       .  S
O124        C125   1.270       .  A
C125        O126   1.249       .  A
C125        C901   1.454       .  S
O126       Cr131   1.934       .  S
O127       Cr131   2.039       .  S
O127        C128   1.274       .  A
C128        C981   1.508       .  S
Cr129       O132   1.761       .  S
Cr130      O1235   1.961       .  S
Cr130       O132   1.763       .  S
Cr131      O1237   2.041       .  S
Cr131      O1238   1.940       .  S
Cr131       O132   1.761       .  S
O133       Cr151   2.000       .  S
O133        C141   1.265       .  A
O134       Cr151   2.018       .  S
O134        C135   1.261       .  A
C135        O136   1.248       .  A
C135        C757   1.489       .  S
O136       Cr152   1.964       .  S
O137       Cr152   2.002       .  S
O137        C138   1.269       .  A
C138        O139   1.260       .  A
C138        C965   1.458       .  S
O139       Cr153   1.960       .  S
O140       Cr153   1.993       .  S
O140        C141   1.262       .  A
C141        C914   1.506       .  S
O142       Cr151   2.005       .  S
O142        C150   1.264       .  A
O143       Cr151   2.017       .  S
O143        C144   1.272       .  A
C144        O145   1.267       .  A
C144        C706   1.485       .  S
O145       Cr152   1.978       .  S
O146       Cr152   1.957       .  S
O146        C147   1.248       .  A
C147        O148   1.269       .  A
C147        C741   1.481       .  S
O148       Cr153   2.023       .  S
O149       Cr153   1.973       .  S
O149        C150   1.259       .  A
C150        C690   1.492       .  S
Cr151       O154   1.785       .  S
Cr152       O154   1.779       .  S
Cr153       O154   1.778       .  S
O155       Cr173   2.041       .  S
O155        C163   1.275       .  A
O156       Cr173   1.982       .  S
O156        C157   1.264       .  A
C157        O158   1.264       .  A
C157        C709   1.502       .  S
O158       Cr174   2.009       .  S
O159       Cr174   1.966       .  S
O159        C160   1.255       .  A
C160        O161   1.267       .  A
C160        C789   1.473       .  S
O161       Cr175   2.015       .  S
O162       Cr175   1.963       .  S
O162        C163   1.258       .  A
C163        C674   1.504       .  S
O164       Cr173   1.986       .  S
O164        C172   1.259       .  A
O165       Cr173   2.036       .  S
O165        C166   1.272       .  A
C166        O167   1.258       .  A
C166        C805   1.498       .  S
O167       Cr174   1.963       .  S
O168       Cr174   2.016       .  S
O168        C169   1.266       .  A
C169        O170   1.256       .  A
C169       C1093   1.476       .  S
O170       Cr175   1.958       .  S
O171       Cr175   2.020       .  S
O171        C172   1.269       .  A
C172        C866   1.509       .  S
Cr173       O176   1.761       .  S
Cr174       O176   1.763       .  S
Cr175       O176   1.767       .  S
O177       Cr195   1.985       .  S
O177        C185   1.258       .  A
O178       Cr195   2.031       .  S
O178        C179   1.270       .  A
C179        O180   1.255       .  A
C179        C629   1.498       .  S
O180       Cr196   1.951       .  S
O181       Cr196   2.019       .  S
O181        C182   1.267       .  A
C182        O183   1.254       .  A
C182        C597   1.463       .  S
O183       Cr197   1.951       .  S
O184       Cr197   2.021       .  S
O184        C185   1.269       .  A
C185        C610   1.511       .  S
O186       Cr195   2.033       .  S
O186        C194   1.276       .  A
O187       Cr195   1.970       .  S
O187        C188   1.258       .  A
C188        O189   1.270       .  A
C188        C658   1.488       .  S
O189       Cr196   2.014       .  S
O190      Cr1316   1.967   1_554  S
O190        C191   1.257       .  A
C191        O192   1.270       .  A
C191        C642   1.493       .  S
O192      Cr1317   2.027   1_554  S
O193      Cr1317   1.950       .  S
O193       C1314   1.252       .  A
C194       O1313   1.254       .  A
C194        C885   1.495       .  S
Cr195       O198   1.761       .  S
Cr196      O1310   1.965       .  S
Cr196       O198   1.761       .  S
Cr197      O1312   2.027       .  S
Cr197      O1313   1.952       .  S
Cr197       O198   1.759       .  S
O199       Cr217   2.031       .  S
O199        C207   1.271       .  A
O200       Cr217   1.987       .  S
O200        C201   1.266       .  A
C201        O202   1.264       .  A
C201        C661   1.491       .  S
O202       Cr218   1.999       .  S
O203      Cr1338   1.958   1_554  S
O203        C204   1.254       .  A
C204        O205   1.271       .  A
C204        C546   1.484       .  S
O205      Cr1339   2.024   1_554  S
O206       Cr219   1.973       .  S
O206        C207   1.260       .  A
C207        C837   1.500       .  S
O208       Cr217   1.994       .  S
O208        C216   1.263       .  A
O209       Cr217   2.025       .  S
O209        C210   1.268       .  A
C210        O211   1.259       .  A
C210        C530   1.503       .  S
O211       Cr218   1.970       .  S
O212       Cr218   2.003       .  S
O212        C213   1.262       .  A
C213        O214   1.256       .  A
C213        C562   1.481       .  S
O214       Cr219   1.954       .  S
O215       Cr219   2.027       .  S
O215        C216   1.272       .  A
C216        C581   1.509       .  S
Cr217       O220   1.763       .  S
Cr218      O1323   1.968       .  S
Cr218       O220   1.767       .  S
Cr219      O1325   2.031       .  S
Cr219       O220   1.764       .  S
O221       Cr239   1.980       .  S
O221        C229   1.259       .  A
O222       Cr239   2.039       .  S
O222        C223   1.272       .  A
C223        O224   1.252       .  A
C223        C549   1.478       .  S
O224       Cr240   1.949       .  S
O225       Cr240   2.023       .  S
O225        C226   1.273       .  A
C226        O227   1.255       .  A
C226        C514   1.477       .  S
O227       Cr241   1.957       .  S
O228       Cr241   2.022       .  S
O228        C229   1.269       .  A
C229        C498   1.499       .  S
O230       Cr239   2.041       .  S
O230        C238   1.275       .  A
O231       Cr239   1.969       .  S
O231        C232   1.258       .  A
C232        O233   1.270       .  A
C232        C482   1.499       .  S
O233       Cr240   2.018       .  S
O234       Cr240   1.962       .  S
O234        C235   1.254       .  A
C235        O236   1.267       .  A
C235        C533   1.492       .  S
O236       Cr241   2.033       .  S
O237       Cr241   1.958       .  S
O237        C238   1.259       .  A
C238       C1029   1.502       .  S
Cr239       O242   1.763       .  S
Cr240       O242   1.759       .  S
Cr241       O242   1.767       .  S
O243       Cr261   2.028       .  S
O243        C251   1.271       .  A
O244       Cr261   1.978       .  S
O244        C245   1.264       .  A
C245        O246   1.267       .  A
C245        C485   1.501       .  S
O246       Cr262   2.016       .  S
O247       Cr262   1.962       .  S
O247        C248   1.255       .  A
C248        O249   1.266       .  A
C248        C626   1.485       .  S
O249       Cr263   2.029       .  S
O250       Cr263   1.963       .  S
O250        C251   1.254       .  A
C251        C949   1.475       .  S
O252       Cr261   1.976       .  S
O252        C260   1.264       .  A
O253       Cr261   2.027       .  S
O253        C254   1.270       .  A
C254        O255   1.258       .  A
C254        C645   1.481       .  S
O255       Cr262   1.973       .  S
O256       Cr262   2.025       .  S
O256        C257   1.270       .  A
C257        O258   1.251       .  A
C257        C469   1.468       .  S
O258       Cr263   1.953       .  S
O259       Cr263   2.034       .  S
O259        C260   1.271       .  A
C260        C450   1.506       .  S
Cr261       O264   1.760       .  S
Cr262       O264   1.760       .  S
Cr263       O264   1.763       .  S
O265       Cr283   1.971       .  S
O265        C273   1.258       .  A
O266       Cr283   2.025       .  S
O266        C267   1.267       .  A
C267        O268   1.250       .  A
C267        C418   1.464       .  S
O268       Cr284   1.948       .  S
O269       Cr284   2.025       .  S
O269        C270   1.266       .  A
C270        O271   1.246       .  A
C270        C466   1.470       .  S
O271       Cr285   1.944       .  S
O272       Cr285   2.034       .  S
O272        C273   1.276       .  A
C273        C613   1.496       .  S
O274       Cr283   2.027       .  S
O274        C282   1.270       .  A
O275       Cr283   1.964       .  S
O275        C276   1.260       .  A
C276        O277   1.274       .  A
C276        C434   1.486       .  S
O277       Cr284   2.030       .  S
O278       Cr284   1.950       .  S
O278        C279   1.250       .  A
C279        O280   1.274       .  A
C279        C402   1.487       .  S
O280       Cr285   2.046       .  S
O281       Cr285   1.969       .  S
O281        C282   1.259       .  A
C282        C693   1.500       .  S
Cr283       O286   1.765       .  S
Cr284       O286   1.760       .  S
Cr285       O286   1.761       .  S
O287       Cr305   2.043       .  S
O287        C295   1.273       .  A
O288       Cr305   1.979       .  S
O288        C289   1.264       .  A
C289        O290   1.267       .  A
C289        C437   1.491       .  S
O290       Cr306   2.019       .  S
O291       Cr306   1.955       .  S
O291        C292   1.254       .  A
C292        O293   1.271       .  A
C292        C373   1.490       .  S
O293       Cr307   2.038       .  S
O294       Cr307   1.959       .  S
O294        C295   1.257       .  A
C295        C677   1.508       .  S
O296       Cr305   1.976       .  S
O296        C304   1.258       .  A
O297       Cr305   2.030       .  S
O297        C298   1.272       .  A
C298        O299   1.255       .  A
C298        C386   1.473       .  S
O299       Cr306   1.956       .  S
O300       Cr306   2.027       .  S
O300        C301   1.269       .  A
C301        O302   1.251       .  A
C301        C517   1.478       .  S
O302       Cr307   1.949       .  S
O303       Cr307   2.039       .  S
O303        C304   1.275       .  A
C304        C578   1.512       .  S
Cr305       O308   1.762       .  S
Cr306       O308   1.763       .  S
Cr307       O308   1.761       .  S
O309       Cr327   1.982       .  S
O309        C317   1.258       .  A
O310       Cr327   2.037       .  S
O310        C311   1.272       .  A
C311        O312   1.255       .  A
C311        C370   1.499       .  S
O312       Cr328   1.949       .  S
O313       Cr328   2.020       .  S
O313        C314   1.268       .  A
C314        O315   1.256       .  A
C314        C565   1.467       .  S
O315       Cr329   1.954       .  S
O316       Cr329   2.014       .  S
O316        C317   1.267       .  A
C317        C501   1.497       .  S
O318       Cr327   2.047       .  S
O318        C326   1.278       .  A
O319       Cr327   1.966       .  S
O319        C320   1.257       .  A
C320        O321   1.269       .  A
C320        C357   1.485       .  S
O321       Cr328   2.012       .  S
O322      Cr1448   1.961       .  S
O322        C323   1.254       .  A
C323        O324   1.269       .  A
C323        C389   1.490       .  S
O324      Cr1449   2.021       .  S
O325       Cr329   1.943       .  S
O325        C326   1.250       .  A
C326        C773   1.499       .  S
Cr327       O330   1.761       .  S
Cr328      O1442   1.965   1_554  S
Cr328       O330   1.761       .  S
Cr329      O1444   2.005   1_554  S
Cr329       O330   1.756       .  S
O331       Cr349   2.045       .  S
O331        C339   1.278       .  A
O332       Cr349   1.972       .  S
O332        C333   1.261       .  A
C333        O334   1.266       .  A
C333        C354   1.484       .  S
O334       Cr350   2.008       .  S
O335      Cr1470   1.959       .  S
O335        C336   1.252       .  A
C336        O337   1.266       .  A
C336        C421   1.478       .  S
O337      Cr1471   2.013       .  S
O338       Cr351   1.954       .  S
O338        C339   1.254       .  A
C339        C725   1.500       .  S
O340       Cr349   1.998       .  S
O340        C348   1.264       .  A
O341       Cr349   2.034       .  S
O341        C342   1.275       .  A
C342        O343   1.254       .  A
C342        C405   1.499       .  S
O343       Cr350   1.962       .  S
O344       Cr350   2.024       .  S
O344        C345   1.268       .  A
C345        O346   1.252       .  A
C345        C594   1.466       .  S
O346       Cr351   1.947       .  S
O347       Cr351   2.016       .  S
O347        C348   1.264       .  A
C348        C453   1.507       .  S
Cr349       O352   1.760       .  S
Cr350      O1455   1.967       .  S
Cr350       O352   1.769       .  S
Cr351      O1457   2.013   1_554  S
Cr351       O352   1.760       .  S
C353        C354   1.405       .  A
C353        C358   1.407   1_655  A
C353        H360   1.083       .  S
C354        C355   1.419       .  A
C355        C356   1.405   1_655  A
C355        C362   1.521       .  S
C356        C357   1.405       .  A
C356        H361   1.083       .  S
C357        C358   1.422       .  A
C358        C359   1.522       .  S
C359        F363   1.385       .  S
C359        F364   1.383       .  S
C359        F365   1.384       .  S
C362        F366   1.384       .  S
C362       F1487   1.382       .  S
C362       F1488   1.385       .  S
F367       C1482   1.382       .  S
F368       C1482   1.385       .  S
C369        C370   1.415       .  A
C369        C374   1.405       .  A
C369        H376   1.082       .  S
C370        C371   1.421       .  A
C371        C372   1.409       .  A
C371        C378   1.522       .  S
C372        C373   1.411       .  A
C372        H377   1.082       .  S
C373        C374   1.412       .  A
C374        C375   1.519       .  S
C375        F379   1.385       .  S
C375        F380   1.382       .  S
C375        F381   1.384       .  S
C378        F382   1.383       .  S
C378        F383   1.384       .  S
C378        F384   1.385       .  S
C385        C386   1.401       .  A
C385        C390   1.409       .  A
C385        H392   1.083       .  S
C386        C387   1.413       .  A
C387        C388   1.402       .  A
C387        C394   1.521       .  S
C388        C389   1.409       .  A
C388        H393   1.082       .  S
C389        C390   1.425       .  A
C390        C391   1.521       .  S
C391        F395   1.385       .  S
C391        F396   1.383       .  S
C391        F397   1.384       .  S
C394        F398   1.382       .  S
C394        F399   1.382       .  S
C394        F400   1.385       .  S
C401        C402   1.397       .  A
C401        C406   1.410       .  A
C401        H408   1.083       .  S
C402        C403   1.428       .  A
C403        C404   1.405       .  A
C403        C410   1.524       .  S
C404        C405   1.401       .  A
C404        H409   1.082       .  S
C405        C406   1.430       .  A
C406        C407   1.518       .  S
C407        F411   1.386       .  S
C407        F412   1.375       .  S
C407        F413   1.383       .  S
C410        F414   1.377       .  S
C410        F415   1.382       .  S
C410        F416   1.385       .  S
C417        C418   1.401       .  A
C417        C422   1.406       .  A
C417        H424   1.084       .  S
C418        C419   1.412       .  A
C419        C420   1.400       .  A
C419        C426   1.522       .  S
C420        C421   1.408       .  A
C420        H425   1.083       .  S
C421        C422   1.420       .  A
C422        C423   1.520       .  S
C423        F427   1.385       .  S
C423        F428   1.384       .  S
C423        F429   1.383       .  S
C426        F430   1.382       .  S
C426        F431   1.383       .  S
C426        F432   1.385       .  S
C433        C434   1.404       .  A
C433        C438   1.411   1_655  A
C433        H440   1.083       .  S
C434        C435   1.420       .  A
C435        C436   1.405   1_655  A
C435        C442   1.521       .  S
C436        C437   1.404       .  A
C436        H441   1.083       .  S
C437        C438   1.423       .  A
C438        C439   1.519       .  S
C439        F443   1.385       .  S
C439        F444   1.382       .  S
C439        F445   1.382       .  S
C442        F446   1.384       .  S
C442        F447   1.383       .  S
C442        F448   1.385       .  S
C449        C450   1.406       .  A
C449        C454   1.410       .  A
C449        H456   1.082       .  S
C450        C451   1.423       .  A
C451        C452   1.416       .  A
C451        C458   1.517       .  S
C452        C453   1.409       .  A
C452        H457   1.082       .  S
C453        C454   1.427       .  A
C454        C455   1.521       .  S
C455        F459   1.385       .  S
C455        F460   1.383       .  S
C455        F461   1.376       .  S
C458        F462   1.384       .  S
C458        F463   1.378       .  S
C458        F464   1.385       .  S
C465        C466   1.396       .  A
C465        C470   1.400       .  A
C465        H472   1.085       .  S
C466        C467   1.423       .  A
C467        C468   1.400       .  A
C467        C474   1.523       .  S
C468        C469   1.397       .  A
C468        H473   1.083       .  S
C469        C470   1.427       .  A
C470        C471   1.522       .  S
C471        F475   1.384       .  S
C471        F476   1.383       .  S
C471        F477   1.375       .  S
C474        F478   1.381       .  S
C474        F479   1.379       .  S
C474        F480   1.385       .  S
C481        C482   1.407       .  A
C481        C486   1.410       .  A
C481        H488   1.081       .  S
C482        C483   1.425       .  A
C483        C484   1.408       .  A
C483        C490   1.523       .  S
C484        C485   1.408       .  A
C484        H489   1.081       .  S
C485        C486   1.426       .  A
C486        C487   1.522       .  S
C487        F491   1.385       .  S
C487        F492   1.380       .  S
C487        F493   1.383       .  S
C490        F494   1.383       .  S
C490        F495   1.384       .  S
C490        F496   1.385       .  S
C497        C498   1.407       .  A
C497        C502   1.411       .  A
C497        H504   1.082       .  S
C498        C499   1.422       .  A
C499        C500   1.409       .  A
C499        C506   1.520       .  S
C500        C501   1.407       .  A
C500        H505   1.083       .  S
C501        C502   1.422       .  A
C502        C503   1.520       .  S
C503        F507   1.385       .  S
C503        F508   1.384       .  S
C503        F509   1.383       .  S
C506        F510   1.384       .  S
C506        F511   1.382       .  S
C506        F512   1.385       .  S
C513        C514   1.401       .  A
C513        C518   1.400       .  A
C513        H520   1.083       .  S
C514        C515   1.420       .  A
C515        C516   1.404       .  A
C515        C522   1.516       .  S
C516        C517   1.403       .  A
C516        H521   1.084       .  S
C517        C518   1.420       .  A
C518        C519   1.517       .  S
C519        F523   1.385       .  S
C519        F524   1.383       .  S
C519        F525   1.380       .  S
C522        F526   1.379       .  S
C522        F527   1.381       .  S
C522        F528   1.386       .  S
C529        C530   1.415       .  A
C529        C534   1.411       .  A
C529        H536   1.082       .  S
C530        C531   1.425       .  A
C531        C532   1.407       .  A
C531        C538   1.524       .  S
C532        C533   1.407       .  A
C532        H537   1.082       .  S
C533        C534   1.415       .  A
C534        C535   1.519       .  S
C535        F539   1.385       .  S
C535        F540   1.384       .  S
C535        F541   1.383       .  S
C538        F542   1.381       .  S
C538        F543   1.382       .  S
C538        F544   1.385       .  S
C545        C546   1.404       .  A
C545        C550   1.403       .  A
C545        H552   1.083       .  S
C546        C547   1.421       .  A
C547        C548   1.411       .  A
C547        C554   1.520       .  S
C548        C549   1.403       .  A
C548        H553   1.084       .  S
C549        C550   1.417       .  A
C550        C551   1.519       .  S
C551        F555   1.385       .  S
C551        F556   1.382       .  S
C551        F557   1.382       .  S
C554        F558   1.385       .  S
C554        F559   1.383       .  S
C554        F560   1.384       .  S
C561        C562   1.410       .  A
C561        C566   1.400       .  A
C561        H568   1.082       .  S
C562       C1683   1.420       .  A
C563        C564   1.400       .  A
C563       C1682   1.413       .  A
C563        C570   1.520       .  S
C564        C565   1.405   1_556  A
C564        H569   1.083       .  S
C565       C1686   1.411       .  A
C566       C1685   1.416       .  A
C566        C567   1.522       .  S
C567        F571   1.385       .  S
C567        F572   1.384       .  S
C567        F573   1.383       .  S
C570        F574   1.382       .  S
C570        F575   1.383       .  S
C570        F576   1.385       .  S
C577        C578   1.407       .  A
C577        C582   1.417       .  A
C577        H584   1.082       .  S
C578        C579   1.427       .  A
C579        C580   1.414       .  A
C579        C586   1.522       .  S
C580        C581   1.407       .  A
C580        H585   1.083       .  S
C581        C582   1.424       .  A
C582        C583   1.518       .  S
C583        F587   1.385       .  S
C583        F588   1.382       .  S
C583        F589   1.384       .  S
C586        F590   1.381       .  S
C586        F591   1.384       .  S
C586        F592   1.385       .  S
C593        C598   1.403       .  A
C593       C1714   1.409       .  A
C593        H600   1.082       .  S
C594        C595   1.408       .  A
C594       C1713   1.408   1_554  A
C595        C596   1.397       .  A
C595        C602   1.512       .  S
C596       C1717   1.405   1_554  A
C596        H601   1.083       .  S
C597        C598   1.409       .  A
C597       C1716   1.403       .  A
C598        C599   1.517       .  S
C599        F603   1.385       .  S
C599        F604   1.383       .  S
C599        F605   1.382       .  S
C602        F606   1.382       .  S
C602        F607   1.383       .  S
C602        F608   1.385       .  S
C609        C610   1.411       .  A
C609        C614   1.413       .  A
C609        H616   1.083       .  S
C610        C611   1.430       .  A
C611        C612   1.411       .  A
C611        C618   1.520       .  S
C612        C613   1.400       .  A
C612        H617   1.081       .  S
C613        C614   1.420       .  A
C614        C615   1.519       .  S
C615        F619   1.385       .  S
C615        F620   1.383       .  S
C615        F621   1.382       .  S
C618        F622   1.383       .  S
C618        F623   1.384       .  S
C618        F624   1.384       .  S
C625        C626   1.408       .  A
C625        C630   1.406       .  A
C625        H632   1.082       .  S
C626        C627   1.414       .  A
C627        C628   1.406       .  A
C627        C634   1.520       .  S
C628        C629   1.415       .  A
C628        H633   1.082       .  S
C629        C630   1.421       .  A
C630        C631   1.521       .  S
C631        F635   1.385       .  S
C631        F636   1.381       .  S
C631        F637   1.383       .  S
C634        F638   1.380       .  S
C634        F639   1.383       .  S
C634        F640   1.385       .  S
C641        C642   1.411       .  A
C641        C646   1.409       .  A
C641        H648   1.081       .  S
C642        C643   1.423       .  A
C643        C644   1.408       .  A
C643        C650   1.520       .  S
C644        C645   1.401       .  A
C644        H649   1.081       .  S
C645        C646   1.414       .  A
C646        C647   1.519       .  S
C647        F651   1.385       .  S
C647        F652   1.384       .  S
C647        F653   1.382       .  S
C650        F654   1.383       .  S
C650        F655   1.384       .  S
C650        F656   1.385       .  S
C657        C658   1.403       .  A
C657        C662   1.405       .  A
C657        H664   1.082       .  S
C658        C659   1.421       .  A
C659        C660   1.409       .  A
C659       C1786   1.521       .  S
C660        C661   1.406       .  A
C660        H665   1.082       .  S
C661        C662   1.425       .  A
C662        C663   1.523       .  S
C663        F667   1.385       .  S
C663        F668   1.380       .  S
C663        F669   1.383       .  S
C666       C1779   1.521       .  S
C666        F671   1.384   1_556  S
C666        F672   1.385       .  S
C666       F1790   1.383       .  S
F670       C1786   1.382       .  S
C673        C674   1.413       .  A
C673        C678   1.415       .  A
C673        H680   1.083       .  S
C674        C675   1.419       .  A
C675        C676   1.410       .  A
C675        C682   1.520       .  S
C676        C677   1.413       .  A
C676        H681   1.082       .  S
C677        C678   1.422       .  A
C678        C679   1.520       .  S
C679        F683   1.385       .  S
C679        F684   1.383       .  S
C679        F685   1.384       .  S
C682        F686   1.384       .  S
C682        F687   1.383       .  S
C682        F688   1.385       .  S
C689        C690   1.405       .  A
C689        C694   1.407       .  A
C689        H696   1.083       .  S
C690        C691   1.416       .  A
C691        C692   1.413       .  A
C691        C698   1.518       .  S
C692        C693   1.413       .  A
C692        H697   1.082       .  S
C693        C694   1.423       .  A
C694        C695   1.521       .  S
C695        F699   1.385       .  S
C695        F700   1.383       .  S
C695        F701   1.383       .  S
C698        F702   1.381       .  S
C698        F703   1.383       .  S
C698        F704   1.385       .  S
C705        C706   1.401       .  A
C705        C710   1.410   1_655  A
C705        H712   1.083       .  S
C706        C707   1.416       .  A
C707        C708   1.407   1_655  A
C707        C714   1.518       .  S
C708        C709   1.410       .  A
C708        H713   1.082       .  S
C709        C710   1.430       .  A
C710        C711   1.523       .  S
C711        F715   1.385       .  S
C711        F716   1.383       .  S
C711        F717   1.383       .  S
C714        F718   1.382       .  S
C714        F719   1.382       .  S
C714        F720   1.385       .  S
C721        C722   1.403       .  A
C721        C726   1.413   1_565  A
C721        H728   1.083       .  S
C722       C1843   1.431       .  A
C723        C724   1.409   1_565  A
C723       C1842   1.429   1_554  A
C723        C730   1.520       .  S
C724        C725   1.402       .  A
C724        H729   1.083       .  S
C725       C1846   1.428   1_554  A
C726       C1845   1.429       .  A
C726        C727   1.520       .  S
C727        F731   1.385       .  S
C727        F732   1.384       .  S
C727        F733   1.383       .  S
C730        F734   1.382       .  S
C730        F735   1.383       .  S
C730        F736   1.385       .  S
C737        C738   1.402       .  A
C737        C742   1.407       .  A
C737        H744   1.083       .  S
C738        C739   1.430       .  A
C739        C740   1.412       .  A
C739        C746   1.522       .  S
C740        C741   1.399       .  A
C740        H745   1.083       .  S
C741        C742   1.423       .  A
C742        C743   1.521       .  S
C743        F747   1.385       .  S
C743        F748   1.382       .  S
C743        F749   1.383       .  S
C746        F750   1.385       .  S
C746        F751   1.384       .  S
C746        F752   1.382       .  S
C753        C754   1.410       .  A
C753        C758   1.413       .  A
C753        H760   1.081       .  S
C754        C755   1.411       .  A
C755        C756   1.405       .  A
C755        C762   1.517       .  S
C756        C757   1.410       .  A
C756        H761   1.083       .  S
C757        C758   1.417       .  A
C758        C759   1.518       .  S
C759        F763   1.385       .  S
C759        F764   1.379       .  S
C759        F765   1.382       .  S
C762        F766   1.383       .  S
C762        F767   1.382       .  S
C762        F768   1.384       .  S
C769        C770   1.401       .  A
C769        C774   1.410   1_565  A
C769        H776   1.083       .  S
C770       C1891   1.422       .  A
C771        C772   1.407   1_565  A
C771       C1890   1.424   1_554  A
C771        C778   1.519       .  S
C772        C773   1.403       .  A
C772        H777   1.083       .  S
C773       C1894   1.434   1_554  A
C774       C1893   1.435       .  A
C774        C775   1.525       .  S
C775        F779   1.385       .  S
C775        F780   1.384       .  S
C775        F781   1.384       .  S
C778        F782   1.382       .  S
C778        F783   1.384       .  S
C778        F784   1.385       .  S
C785        C786   1.403       .  A
C785        C790   1.407       .  A
C785        H792   1.077       .  S
C786        C787   1.412       .  A
C787        C788   1.402       .  A
C787        C794   1.518       .  S
C788        C789   1.406       .  A
C788        H793   1.083       .  S
C789        C790   1.415       .  A
C790        C791   1.519       .  S
C791        F795   1.385       .  S
C791        F796   1.384       .  S
C791        F797   1.382       .  S
C794        F798   1.383       .  S
C794        F799   1.380       .  S
C794        F800   1.385       .  S
C801        C802   1.412       .  A
C801        C806   1.410       .  A
C801        H808   1.081       .  S
C802        C803   1.426       .  A
C803        C804   1.411       .  A
C803        C810   1.522       .  S
C804        C805   1.408       .  A
C804        H809   1.081       .  S
C805        C806   1.419       .  A
C806        C807   1.520       .  S
C807        F811   1.385       .  S
C807        F812   1.382       .  S
C807        F813   1.383       .  S
C810        F814   1.382       .  S
C810        F815   1.383       .  S
C810        F816   1.385       .  S
C817        C818   1.402       .  A
C817        C822   1.405   1_455  A
C817       H1944   1.083       .  S
C818        C819   1.420       .  A
C819        C820   1.407   1_455  A
C819        C826   1.516       .  S
C820        C821   1.402       .  A
C820        H825   1.084       .  S
C821        C822   1.418       .  A
C822       C1943   1.519       .  S
C823       C1942   1.518       .  S
C823        F827   1.385   1_556  S
C823        F828   1.383   1_556  S
C823        F829   1.382       .  S
H824       C1937   1.083       .  S
C826        F830   1.382       .  S
C826        F831   1.383       .  S
C826        F832   1.385       .  S
C833        C834   1.412   1_556  A
C833       C1958   1.409       .  A
C833        H840   1.081       .  S
C834        C835   1.421       .  A
C835        C836   1.414       .  A
C835        C842   1.519       .  S
C836       C1957   1.412   1_554  A
C836        H841   1.082       .  S
C837        C838   1.420       .  A
C837       C1956   1.410       .  A
C838       C1953   1.409       .  A
C838        C839   1.523       .  S
C839        F843   1.385       .  S
C839        F844   1.383       .  S
C839       F1965   1.383       .  S
C842        F847   1.384       .  S
C842        F848   1.385       .  S
C842       F1966   1.383       .  S
F845       C1959   1.383       .  S
F846       C1962   1.383       .  S
C849        C854   1.397   1_556  A
C849       C1970   1.407       .  A
C849        H856   1.082       .  S
C850        C851   1.415       .  A
C850       C1969   1.409       .  A
C851        C852   1.398       .  A
C851        C858   1.522       .  S
C852       C1973   1.408       .  A
C852        H857   1.082       .  S
C853        C854   1.416       .  A
C853       C1972   1.408       .  A
C854        C855   1.522       .  S
C855        F859   1.385       .  S
C855        F860   1.383   1_554  S
C855        F861   1.383       .  S
C858        F862   1.383       .  S
C858        F863   1.383       .  S
C858        F864   1.385       .  S
C865        C866   1.410       .  A
C865        C870   1.413       .  A
C865        H872   1.083       .  S
C866        C867   1.427       .  A
C867        C868   1.413       .  A
C867        C874   1.521       .  S
C868        C869   1.405       .  A
C868        H873   1.083       .  S
C869        C870   1.422       .  A
C870        C871   1.521       .  S
C871        F875   1.385       .  S
C871        F876   1.382       .  S
C871        F877   1.383       .  S
C874        F878   1.383       .  S
C874        F879   1.384       .  S
C874        F880   1.385       .  S
C881        C882   1.403       .  A
C881        C886   1.411       .  A
C881        H888   1.083       .  S
C882       C2003   1.426   1_554  A
C883        C884   1.406       .  A
C883       C2002   1.424       .  A
C883        C890   1.517       .  S
C884        C885   1.403       .  A
C884        H889   1.083       .  S
C885       C2006   1.429       .  A
C886       C2005   1.431   1_554  A
C886        C887   1.523       .  S
C887        F891   1.385       .  S
C887        F892   1.383       .  S
C887        F893   1.384       .  S
C890        F894   1.382       .  S
C890        F895   1.384       .  S
C890        F896   1.385       .  S
C897        C898   1.393       .  A
C897        C902   1.399       .  A
C897        H904   1.084       .  S
C898        C899   1.419   1_554  A
C899       C2020   1.397       .  A
C899        C906   1.519       .  S
C900        C901   1.392       .  A
C900       C2019   1.394       .  A
C900        H905   1.082       .  S
C901       C2022   1.423       .  A
C902       C2021   1.424   1_554  A
C902       C2023   1.521       .  S
C903       C2022   1.522       .  S
C903        F908   1.382       .  S
C903       F2027   1.385       .  S
C903       F2029   1.378       .  S
C906        F911   1.380       .  S
C906        F912   1.385       .  S
C906       F2030   1.379       .  S
F907       C2023   1.385       .  S
F909       C2023   1.378       .  S
F910       C2026   1.379       .  S
C913        C914   1.410       .  A
C913        C918   1.414       .  A
C913        H920   1.082       .  S
C914        C915   1.422       .  A
C915        C916   1.412       .  A
C915        C922   1.522       .  S
C916        C917   1.413       .  A
C916        H921   1.082       .  S
C917        C918   1.422       .  A
C918        C919   1.517       .  S
C919        F923   1.385       .  S
C919        F924   1.379       .  S
C919        F925   1.383       .  S
C922        F926   1.382       .  S
C922        F927   1.384       .  S
C922        F928   1.385       .  S
C929        C930   1.408       .  A
C929        C934   1.407       .  A
C929        H936   1.081       .  S
C930        C931   1.423       .  A
C931        C932   1.403       .  A
C931        C938   1.525       .  S
C932        C933   1.407       .  A
C932        H937   1.081       .  S
C933        C934   1.425       .  A
C934        C935   1.523       .  S
C935        F939   1.385       .  S
C935        F940   1.382       .  S
C935       F2061   1.383       .  S
C938        F942   1.384       .  S
C938        F943   1.384       .  S
C938        F944   1.385       .  S
F941       C2055   1.383       .  S
C945        C946   1.406       .  A
C945        C950   1.414   1_565  A
C945        H952   1.083       .  S
C946        C947   1.429       .  A
C947        C948   1.402   1_565  A
C947        C954   1.524       .  S
C948        C949   1.394       .  A
C948        H953   1.084       .  S
C949        C950   1.416       .  A
C950        C951   1.517       .  S
C951        F955   1.384       .  S
C951        F956   1.383       .  S
C951        F957   1.382       .  S
C954        F958   1.380       .  S
C954        F959   1.383       .  S
C954        F960   1.385       .  S
C961        C962   1.404       .  A
C961        C966   1.404       .  A
C961        H968   1.083       .  S
C962        C963   1.416       .  A
C963        C964   1.400       .  A
C963        C970   1.519       .  S
C964        C965   1.402       .  A
C964        H969   1.084       .  S
C965        C966   1.410       .  A
C966        C967   1.513       .  S
C967        F971   1.384       .  S
C967        F972   1.380       .  S
C967        F973   1.382       .  S
C970        F974   1.384       .  S
C970        F975   1.378       .  S
C970        F976   1.383       .  S
C977        C978   1.409       .  A
C977        C982   1.416       .  A
C977        H984   1.083       .  S
C978        C979   1.430       .  A
C979        C980   1.415       .  A
C979        C986   1.516       .  S
C980        C981   1.404       .  A
C980        H985   1.084       .  S
C981        C982   1.425       .  A
C982        C983   1.519       .  S
C983        F987   1.385       .  S
C983        F988   1.383       .  S
C983        F989   1.383       .  S
C986        F990   1.381       .  S
C986        F991   1.384       .  S
C986        F992   1.385       .  S
C993        C994   1.416       .  A
C993        C998   1.410       .  A
C993       H1000   1.082       .  S
C994        C995   1.423       .  A
C995        C996   1.411       .  A
C995       C1002   1.522       .  S
C996        C997   1.409       .  A
C996       H1001   1.082       .  S
C997        C998   1.411       .  A
C998        C999   1.517       .  S
C999       F1003   1.384       .  S
C999       F1004   1.382       .  S
C999       F1005   1.380       .  S
C1002      F1006   1.383       .  S
C1002      F1007   1.379       .  S
C1002      F1008   1.385       .  S
C1009      C1010   1.412       .  A
C1009      C1014   1.407       .  A
C1009      H1016   1.082       .  S
C1010      C1011   1.422       .  A
C1011      C1012   1.410       .  A
C1011      C1018   1.520       .  S
C1012      C1013   1.408       .  A
C1012      H1017   1.083       .  S
C1013      C1014   1.418       .  A
C1014      C1015   1.522       .  S
C1015      F1019   1.385       .  S
C1015      F1020   1.382       .  S
C1015      F1021   1.383       .  S
C1018      F1022   1.380       .  S
C1018      F1023   1.382       .  S
C1018      F1024   1.385       .  S
C1025      C1026   1.413       .  A
C1025      C1030   1.411   1_565  A
C1025      H1032   1.082       .  S
C1026      C1027   1.421   1_565  A
C1027      C1028   1.411       .  A
C1027      C1034   1.520       .  S
C1028      C1029   1.411       .  A
C1028      H1033   1.082       .  S
C1029      C1030   1.420       .  A
C1030      C1031   1.521       .  S
C1031      F1035   1.385   1_545  S
C1031      F1036   1.383       .  S
C1031      F1037   1.384       .  S
C1034      F1038   1.383   1_545  S
C1034      F1039   1.383   1_545  S
C1034      F1040   1.385       .  S
C1041      C1042   1.414       .  A
C1041      C1046   1.412       .  A
C1041      H1048   1.081       .  S
C1042      C1043   1.423       .  A
C1043      C1044   1.406       .  A
C1043      C1050   1.521       .  S
C1044      C1045   1.406       .  A
C1044      H1049   1.083       .  S
C1045      C1046   1.419       .  A
C1046      C1047   1.520       .  S
C1047      F1051   1.385       .  S
C1047      F1052   1.383       .  S
C1047      F1053   1.383       .  S
C1050      F1054   1.383       .  S
C1050      F1055   1.384       .  S
C1050      F1056   1.385       .  S
C1057      C1058   1.401       .  A
C1057      C1062   1.407       .  A
C1057      H1064   1.083       .  S
C1058      C1059   1.415       .  A
C1059      C1060   1.405       .  A
C1059      C1066   1.520       .  S
C1060      C1061   1.408       .  A
C1060      H1065   1.084       .  S
C1061      C1062   1.418       .  A
C1062      C1063   1.518       .  S
C1063      F1067   1.385       .  S
C1063      F1068   1.382       .  S
C1063      F1069   1.384       .  S
C1066      F1070   1.381       .  S
C1066      F1071   1.382       .  S
C1066      F1072   1.385       .  S
C1073      C1074   1.406       .  A
C1073      C1078   1.409       .  A
C1073      H1080   1.082       .  S
C1074      C1075   1.421       .  A
C1075      C1076   1.410       .  A
C1075      C1082   1.521       .  S
C1076      C1077   1.408       .  A
C1076      H1081   1.083       .  S
C1077      C1078   1.425       .  A
C1078      C1079   1.522       .  S
C1079      F1083   1.385       .  S
C1079      F1084   1.383       .  S
C1079      F1085   1.383       .  S
C1082      F1086   1.385       .  S
C1082      F1087   1.383       .  S
C1082      F1088   1.384       .  S
C1089      C1090   1.408       .  A
C1089      C1094   1.401       .  A
C1089      H1096   1.083       .  S
C1090      C1091   1.415       .  A
C1091      C1092   1.403       .  A
C1091      C1098   1.520       .  S
C1092      C1093   1.408       .  A
C1092      H1097   1.083       .  S
C1093      C1094   1.414       .  A
C1094      C1095   1.520       .  S
C1095      F1099   1.385       .  S
C1095      F1100   1.382       .  S
C1095      F1101   1.383       .  S
C1098      F1102   1.383       .  S
C1098      F1103   1.383       .  S
C1098      F1104   1.385       .  S
C1105      C1106   1.413       .  A
C1105      C1110   1.415       .  A
C1105      H1112   1.082       .  S
C1106      C1107   1.430       .  A
C1107      C1108   1.411       .  A
C1107      C1114   1.523       .  S
C1108      C1109   1.402       .  A
C1108      H1113   1.083       .  S
C1109      C1110   1.418       .  A
C1110      C1111   1.520       .  S
C1111      F1115   1.385       .  S
C1111      F1116   1.383       .  S
C1111      F1117   1.381       .  S
C1114      F1118   1.383       .  S
C1114      F1119   1.383       .  S
C1114      F1120   1.385       .  S
O1121     Cr1139   1.988       .  S
O1121      C1129   1.260       .  A
O1122     Cr1139   2.034       .  S
O1122      C1123   1.270       .  A
C1123      O1124   1.256       .  A
C1123      C2165   1.489       .  S
O1124     Cr1140   1.953       .  S
O1125     Cr1140   2.016       .  S
O1125      C1126   1.267       .  A
C1126      O1127   1.255       .  A
C1126      C2210   1.461       .  S
O1127     Cr1141   1.952       .  S
O1128     Cr1141   2.027       .  S
O1128      C1129   1.271       .  A
C1129      C2226   1.514       .  S
O1130     Cr1139   2.035       .  S
O1130      C1138   1.273       .  A
O1131     Cr1139   1.981       .  S
O1131      C1132   1.261       .  A
C1132      O1133   1.269       .  A
C1132      C2194   1.497       .  S
O1133     Cr1140   2.013       .  S
O1134     Cr1140   1.959       .  S
O1134      C1135   1.253       .  A
C1135      O1136   1.270       .  A
C1135      C2181   1.489       .  S
O1136     Cr1141   2.026       .  S
O1137     Cr1141   1.960       .  S
O1137      C1138   1.258       .  A
C1138      C2146   1.501       .  S
Cr1139     O1142   1.762       .  S
Cr1140     O1142   1.762       .  S
Cr1141     O1142   1.766       .  S
O1143     Cr1161   2.059       .  S
O1143      C1151   1.277       .  A
O1144     Cr1161   1.978       .  S
O1144      C1145   1.264       .  A
C1145      O1146   1.270       .  A
C1145      C2197   1.500       .  S
O1146     Cr1162   2.024       .  S
O1147     Cr1162   1.959       .  S
O1147      C1148   1.256       .  A
C1148      O1149   1.268       .  A
C1148      C2130   1.498       .  S
O1149     Cr1163   2.037       .  S
O1150     Cr1163   1.946       .  S
O1150      C1151   1.250       .  A
C1151      C2066   1.489       .  S
O1152     Cr1161   1.983       .  S
O1152      C1160   1.259       .  A
O1153     Cr1161   2.044       .  S
O1153      C1154   1.274       .  A
C1154      O1155   1.260       .  A
C1154      C2114   1.505       .  S
O1155     Cr1162   1.962       .  S
O1156     Cr1162   2.047       .  S
O1156      C1157   1.273       .  A
C1157      O1158   1.248       .  A
C1157      C2082   1.478       .  S
O1158     Cr1163   1.940       .  S
O1159     Cr1163   2.034       .  S
O1159      C1160   1.272       .  A
C1160      C2098   1.515       .  S
Cr1161     O1164   1.762       .  S
Cr1162     O1164   1.757       .  S
Cr1163     O1164   1.754       .  S
O1165     Cr1183   1.968       .  S
O1165      C1173   1.260       .  A
O1166     Cr1183   2.023       .  S
O1166      C1167   1.269       .  A
C1167      O1168   1.257       .  A
C1167      C2133   1.491       .  S
O1168     Cr1184   1.962       .  S
O1169     Cr1184   2.016       .  S
O1169      C1170   1.266       .  A
C1170      O1171   1.249       .  A
C1170      C2018   1.453       .  S
O1171     Cr1185   1.939       .  S
O1172     Cr1185   2.046       .  S
O1172      C1173   1.275       .  A
C1173      C2037   1.512       .  S
O1174     Cr1183   2.028       .  S
O1174      C1182   1.272       .  A
O1175     Cr1183   1.964       .  S
O1175      C1176   1.256       .  A
C1176      O1177   1.269       .  A
C1176      C2050   1.492       .  S
O1177     Cr1184   2.014       .  S
O1178      C1179   1.255   1_554  A
C1179      O1180   1.272       .  A
C1179      C2117   1.491       .  S
O1181     Cr1185   1.958       .  S
O1181      C1182   1.254       .  A
C1182      C2002   1.493       .  S
Cr1183     O1186   1.759       .  S
Cr1184     O1186   1.766       .  S
Cr1185     O1186   1.761       .  S
O1187     Cr1205   2.050       .  S
O1187      C1195   1.275       .  A
O1188     Cr1205   1.968       .  S
O1188      C1189   1.262       .  A
C1189      O1190   1.266       .  A
C1189      C2053   1.494       .  S
O1190     Cr1206   2.013       .  S
O1191      C1192   1.259       .  A
C1192      O1193   1.267       .  A
C1192      C2162   1.500       .  S
O1194     Cr1207   1.958       .  S
O1194      C1195   1.258       .  A
C1195      C1954   1.510       .  S
O1196     Cr1205   1.973       .  S
O1196      C1204   1.255       .  A
O1197     Cr1205   2.035       .  S
O1197      C1198   1.274       .  A
C1198      O1199   1.253       .  A
C1198      C2178   1.473       .  S
O1199     Cr1206   1.951       .  S
O1200     Cr1206   2.012       .  S
O1200      C1201   1.264       .  A
C1201      O1202   1.253       .  A
C1201      C1973   1.471       .  S
O1202     Cr1207   1.948       .  S
O1203     Cr1207   2.032       .  S
O1203      C1204   1.272       .  A
C1204      C1989   1.509       .  S
Cr1205     O1208   1.757       .  S
Cr1206     O1208   1.766       .  S
Cr1207     O1208   1.752       .  S
O1209     Cr1227   1.995       .  S
O1209      C1217   1.260       .  A
O1210     Cr1227   2.034       .  S
O1210      C1211   1.272       .  A
C1211      O1212   1.253       .  A
C1211      C1906   1.474       .  S
O1212     Cr1228   1.955       .  S
O1213     Cr1228   2.005       .  S
O1213      C1214   1.263       .  A
C1214      O1215   1.254       .  A
C1214      C1970   1.468       .  S
O1215     Cr1229   1.948       .  S
O1216     Cr1229   2.019       .  S
O1216      C1217   1.268       .  A
C1217      C2229   1.504       .  S
O1218     Cr1227   2.041       .  S
O1218      C1226   1.278       .  A
O1219     Cr1227   1.989       .  S
O1219      C1220   1.264       .  A
C1220      O1221   1.266       .  A
C1220      C1938   1.488       .  S
O1221     Cr1228   2.013       .  S
O1222      C1223   1.259       .  A
C1223      O1224   1.268       .  A
C1223      C1922   1.499       .  S
O1225     Cr1229   1.951       .  S
O1225      C1226   1.256       .  A
C1226      C1890   1.494       .  S
Cr1227     O1230   1.765       .  S
Cr1228     O1230   1.764       .  S
Cr1229     O1230   1.762       .  S
O1231     Cr1249   2.051       .  S
O1231      C1239   1.279       .  A
O1232     Cr1249   1.971       .  S
O1232      C1233   1.258       .  A
C1233      O1234   1.272       .  A
C1233      C1941   1.485       .  S
O1234     Cr1250   2.030       .  S
O1235      C1236   1.251       .  A
C1236      O1237   1.270       .  A
C1236      C1874   1.485       .  S
C1239      C1842   1.502       .  S
O1240     Cr1249   1.978       .  S
O1240      C1248   1.258       .  A
O1241     Cr1249   2.053       .  S
O1241      C1242   1.277       .  A
C1242      O1243   1.249       .  A
C1242      C1858   1.494       .  S
O1243     Cr1250   1.942       .  S
O1244     Cr1250   2.031       .  S
O1244      C1245   1.272       .  A
C1245      O1246   1.250       .  A
C1245      C2021   1.462       .  S
O1246     Cr1251   1.941       .  S
O1247     Cr1251   2.033       .  S
O1247      C1248   1.273       .  A
C1248      C2101   1.502       .  S
Cr1249     O1252   1.763       .  S
Cr1250     O1252   1.761       .  S
Cr1251     O1252   1.764       .  S
O1253     Cr1271   2.001       .  S
O1253      C1261   1.264       .  A
O1254     Cr1271   2.017       .  S
O1254      C1255   1.260       .  A
C1255      O1256   1.248       .  A
C1255      C1877   1.491       .  S
O1256     Cr1272   1.967       .  S
O1257     Cr1272   2.009       .  S
O1257      C1258   1.270       .  A
C1258      O1259   1.259       .  A
C1258      C2085   1.463       .  S
O1259     Cr1273   1.960       .  S
O1260     Cr1273   1.995       .  S
O1260      C1261   1.262       .  A
C1261      C2034   1.508       .  S
O1262     Cr1271   2.010       .  S
O1262      C1270   1.266       .  A
O1263     Cr1271   2.017       .  S
O1263      C1264   1.272       .  A
C1264      O1265   1.268       .  A
C1264      C1826   1.488       .  S
O1265     Cr1272   1.987       .  S
O1266     Cr1272   1.959       .  S
O1266      C1267   1.249       .  A
C1267      O1268   1.268       .  A
C1267      C1861   1.481       .  S
O1268     Cr1273   2.019       .  S
O1269     Cr1273   1.976       .  S
O1269      C1270   1.259       .  A
C1270      C1810   1.495       .  S
Cr1271     O1274   1.786       .  S
Cr1272     O1274   1.786       .  S
Cr1273     O1274   1.782       .  S
O1275     Cr1293   2.031       .  S
O1275      C1283   1.272       .  A
O1276     Cr1293   1.993       .  S
O1276      C1277   1.266       .  A
C1277      O1278   1.265       .  A
C1277      C1829   1.508       .  S
O1278     Cr1294   2.011       .  S
O1279     Cr1294   1.960       .  S
O1279      C1280   1.255       .  A
C1280      O1281   1.269       .  A
C1280      C1909   1.483       .  S
O1281     Cr1295   2.027       .  S
O1282     Cr1295   1.971       .  S
O1282      C1283   1.260       .  A
C1283      C1794   1.505       .  S
O1284     Cr1293   1.990       .  S
O1284      C1292   1.261       .  A
O1285     Cr1293   2.029       .  S
O1285      C1286   1.269       .  A
C1286      O1287   1.257       .  A
C1286      C1925   1.501       .  S
O1287     Cr1294   1.960       .  S
O1288     Cr1294   2.010       .  S
O1288      C1289   1.265       .  A
C1289      O1290   1.255       .  A
C1289      C2213   1.463       .  S
O1290     Cr1295   1.957       .  S
O1291     Cr1295   2.021       .  S
O1291      C1292   1.270       .  A
C1292      C1986   1.505       .  S
Cr1293     O1296   1.764       .  S
Cr1294     O1296   1.762       .  S
Cr1295     O1296   1.770       .  S
O1297     Cr1315   1.988       .  S
O1297      C1305   1.258       .  A
O1298     Cr1315   2.034       .  S
O1298      C1299   1.271       .  A
C1299      O1300   1.256       .  A
C1299      C1749   1.498       .  S
O1300     Cr1316   1.951       .  S
O1301     Cr1316   2.016       .  S
O1301      C1302   1.266       .  A
C1302      O1303   1.253       .  A
C1302      C1717   1.461       .  S
O1303     Cr1317   1.949       .  S
O1304     Cr1317   2.026       .  S
O1304      C1305   1.270       .  A
C1305      C1730   1.516       .  S
O1306     Cr1315   2.042       .  S
O1306      C1314   1.278       .  A
O1307     Cr1315   1.970       .  S
O1307      C1308   1.258       .  A
C1308      O1309   1.270       .  A
C1308      C1778   1.491       .  S
O1309     Cr1316   2.018       .  S
O1310      C1311   1.255       .  A
C1311      O1312   1.269       .  A
C1311      C1762   1.489       .  S
C1314      C2005   1.499       .  S
Cr1315     O1318   1.761       .  S
Cr1316     O1318   1.763       .  S
Cr1317     O1318   1.759       .  S
O1319     Cr1337   2.029       .  S
O1319      C1327   1.271       .  A
O1320     Cr1337   1.981       .  S
O1320      C1321   1.265       .  A
C1321      O1322   1.265       .  A
C1321      C1781   1.492       .  S
O1322     Cr1338   2.007       .  S
O1323      C1324   1.256       .  A
C1324      O1325   1.271       .  A
C1324      C1666   1.493       .  S
O1326     Cr1339   1.970       .  S
O1326      C1327   1.259       .  A
C1327      C1957   1.504       .  S
O1328     Cr1337   1.986       .  S
O1328      C1336   1.262       .  A
O1329     Cr1337   2.029       .  S
O1329      C1330   1.269       .  A
C1330      O1331   1.257       .  A
C1330      C1650   1.499       .  S
O1331     Cr1338   1.959       .  S
O1332     Cr1338   2.007       .  S
O1332      C1333   1.264       .  A
C1333      O1334   1.256       .  A
C1333      C1682   1.469       .  S
O1334     Cr1339   1.960       .  S
O1335     Cr1339   2.022       .  S
O1335      C1336   1.271       .  A
C1336      C1701   1.499       .  S
Cr1337     O1340   1.763       .  S
Cr1338     O1340   1.762       .  S
Cr1339     O1340   1.764       .  S
O1341     Cr1359   1.983       .  S
O1341      C1349   1.259       .  A
O1342     Cr1359   2.044       .  S
O1342      C1343   1.274       .  A
C1343      O1344   1.253       .  A
C1343      C1669   1.482       .  S
O1344     Cr1360   1.953       .  S
O1345     Cr1360   2.028       .  S
O1345      C1346   1.274       .  A
C1346      O1347   1.255       .  A
C1346      C1634   1.476       .  S
O1347     Cr1361   1.952       .  S
O1348     Cr1361   2.024       .  S
O1348      C1349   1.269       .  A
C1349      C1618   1.502       .  S
O1350     Cr1359   2.044       .  S
O1350      C1358   1.276       .  A
O1351     Cr1359   1.967       .  S
O1351      C1352   1.256       .  A
C1352      O1353   1.272       .  A
C1352      C1602   1.505       .  S
O1353     Cr1360   2.026       .  S
O1354     Cr1360   1.963       .  S
O1354      C1355   1.254       .  A
C1355      O1356   1.265       .  A
C1355      C1653   1.489       .  S
O1356     Cr1361   2.026       .  S
O1357     Cr1361   1.956       .  S
O1357      C1358   1.259       .  A
C1358      C2149   1.503       .  S
Cr1359     O1362   1.761       .  S
Cr1360     O1362   1.762       .  S
Cr1361     O1362   1.766       .  S
O1363     Cr1381   2.030       .  S
O1363      C1371   1.271       .  A
O1364     Cr1381   1.981       .  S
O1364      C1365   1.265       .  A
C1365      O1366   1.267       .  A
C1365      C1605   1.503       .  S
O1366     Cr1382   2.017       .  S
O1367     Cr1382   1.956       .  S
O1367      C1368   1.252       .  A
C1368      O1369   1.269       .  A
C1368      C1746   1.483       .  S
O1369     Cr1383   2.033       .  S
O1370     Cr1383   1.964       .  S
O1370      C1371   1.253       .  A
C1371      C2069   1.475       .  S
O1372     Cr1381   1.978       .  S
O1372      C1380   1.265       .  A
O1373     Cr1381   2.033       .  S
O1373      C1374   1.272       .  A
C1374      O1375   1.256       .  A
C1374      C1765   1.476       .  S
O1375     Cr1382   1.963       .  S
O1376     Cr1382   2.028       .  S
O1376      C1377   1.270       .  A
C1377      O1378   1.250       .  A
C1377      C1589   1.467       .  S
O1378     Cr1383   1.948       .  S
O1379     Cr1383   2.039       .  S
O1379      C1380   1.273       .  A
C1380      C1570   1.508       .  S
Cr1381     O1384   1.759       .  S
Cr1382     O1384   1.759       .  S
Cr1383     O1384   1.761       .  S
O1385     Cr1403   1.975       .  S
O1385      C1393   1.260       .  A
O1386     Cr1403   2.036       .  S
O1386      C1387   1.270       .  A
C1387      O1388   1.251       .  A
C1387      C1538   1.470       .  S
O1388     Cr1404   1.950       .  S
O1389     Cr1404   2.032       .  S
O1389      C1390   1.268       .  A
C1390      O1391   1.246       .  A
C1390      C1586   1.470       .  S
O1391     Cr1405   1.941       .  S
O1392     Cr1405   2.041       .  S
O1392      C1393   1.278       .  A
C1393      C1733   1.502       .  S
O1394     Cr1403   2.039       .  S
O1394      C1402   1.272       .  A
O1395     Cr1403   1.971       .  S
O1395      C1396   1.261       .  A
C1396      O1397   1.274       .  A
C1396      C1554   1.501       .  S
O1397     Cr1404   2.032       .  S
O1398     Cr1404   1.947       .  S
O1398      C1399   1.248       .  A
C1399      O1400   1.276       .  A
C1399      C1522   1.490       .  S
O1400     Cr1405   2.053       .  S
O1401     Cr1405   1.973       .  S
O1401      C1402   1.260       .  A
C1402      C1813   1.510       .  S
Cr1403     O1406   1.762       .  S
Cr1404     O1406   1.761       .  S
Cr1405     O1406   1.761       .  S
O1407     Cr1425   2.038       .  S
O1407      C1415   1.273       .  A
O1408     Cr1425   1.974       .  S
O1408      C1409   1.264       .  A
C1409      O1410   1.270       .  A
C1409      C1557   1.504       .  S
O1410     Cr1426   2.028       .  S
O1411     Cr1426   1.957       .  S
O1411      C1412   1.254       .  A
C1412      O1413   1.273       .  A
C1412      C1493   1.494       .  S
O1413     Cr1427   2.045       .  S
O1414     Cr1427   1.961       .  S
O1414      C1415   1.260       .  A
C1415      C1797   1.505       .  S
O1416     Cr1425   1.976       .  S
O1416      C1424   1.258       .  A
O1417     Cr1425   2.031       .  S
O1417      C1418   1.270       .  A
C1418      O1419   1.251       .  A
C1418      C1506   1.469       .  S
O1419     Cr1426   1.943       .  S
O1420     Cr1426   2.029       .  S
O1420      C1421   1.272       .  A
C1421      O1422   1.250       .  A
C1421      C1637   1.476       .  S
O1422     Cr1427   1.952       .  S
O1423     Cr1427   2.034       .  S
O1423      C1424   1.272       .  A
C1424      C1698   1.505       .  S
Cr1425     O1428   1.760       .  S
Cr1426     O1428   1.760       .  S
Cr1427     O1428   1.761       .  S
O1429     Cr1447   1.981       .  S
O1429      C1437   1.258       .  A
O1430     Cr1447   2.046       .  S
O1430      C1431   1.275       .  A
C1431      O1432   1.255       .  A
C1431      C1490   1.505       .  S
O1432     Cr1448   1.950       .  S
O1433     Cr1448   2.018       .  S
O1433      C1434   1.266       .  A
C1434      O1435   1.255       .  A
C1434      C1685   1.480       .  S
O1435     Cr1449   1.948       .  S
O1436     Cr1449   2.021       .  S
O1436      C1437   1.268       .  A
C1437      C1621   1.502       .  S
O1438     Cr1447   2.052       .  S
O1438      C1446   1.280       .  A
O1439     Cr1447   1.971       .  S
O1439      C1440   1.258       .  A
C1440      O1441   1.269       .  A
C1440      C1477   1.483       .  S
O1441     Cr1448   2.012       .  S
O1442      C1443   1.254       .  A
C1443      O1444   1.267       .  A
C1443      C1509   1.483       .  S
O1445     Cr1449   1.950       .  S
O1445      C1446   1.252       .  A
C1446      C1893   1.505       .  S
Cr1447     O1450   1.758       .  S
Cr1448     O1450   1.761       .  S
Cr1449     O1450   1.756       .  S
O1451     Cr1469   2.044       .  S
O1451      C1459   1.279       .  A
O1452     Cr1469   1.974       .  S
O1452      C1453   1.261       .  A
C1453      O1454   1.268       .  A
C1453      C1474   1.484       .  S
O1454     Cr1470   2.015       .  S
O1455      C1456   1.253   1_554  A
C1456      O1457   1.266       .  A
C1456      C1541   1.479       .  S
O1458     Cr1471   1.958       .  S
O1458      C1459   1.254       .  A
C1459      C1845   1.499       .  S
O1460     Cr1469   1.996       .  S
O1460      C1468   1.265       .  A
O1461     Cr1469   2.047       .  S
O1461      C1462   1.276       .  A
C1462      O1463   1.252       .  A
C1462      C1525   1.500       .  S
O1463     Cr1470   1.954       .  S
O1464     Cr1470   2.026       .  S
O1464      C1465   1.268       .  A
C1465      O1466   1.254       .  A
C1465      C1714   1.472       .  S
O1466     Cr1471   1.953       .  S
O1467     Cr1471   2.017       .  S
O1467      C1468   1.265       .  A
C1468      C1573   1.507       .  S
Cr1469     O1472   1.761       .  S
Cr1470     O1472   1.763       .  S
Cr1471     O1472   1.761       .  S
C1473      C1474   1.406       .  A
C1473      C1478   1.408   1_655  A
C1473      H1480   1.083       .  S
C1474      C1475   1.419       .  A
C1475      C1476   1.405   1_655  A
C1475      C1482   1.519       .  S
C1476      C1477   1.403       .  A
C1476      H1481   1.083       .  S
C1477      C1478   1.420       .  A
C1478      C1479   1.521       .  S
C1479      F1483   1.385       .  S
C1479      F1484   1.383       .  S
C1479      F1485   1.384       .  S
C1482      F1486   1.383       .  S
C1489      C1490   1.417       .  A
C1489      C1494   1.409       .  A
C1489      H1496   1.082       .  S
C1490      C1491   1.421       .  A
C1491      C1492   1.411       .  A
C1491      C1498   1.520       .  S
C1492      C1493   1.411       .  A
C1492      H1497   1.082       .  S
C1493      C1494   1.412       .  A
C1494      C1495   1.518       .  S
C1495      F1499   1.385       .  S
C1495      F1500   1.382       .  S
C1495      F1501   1.384       .  S
C1498      F1502   1.383       .  S
C1498      F1503   1.384       .  S
C1498      F1504   1.385       .  S
C1505      C1506   1.402       .  A
C1505      C1510   1.408       .  A
C1505      H1512   1.084       .  S
C1506      C1507   1.414       .  A
C1507      C1508   1.398       .  A
C1507      C1514   1.521       .  S
C1508      C1509   1.407       .  A
C1508      H1513   1.082       .  S
C1509      C1510   1.422       .  A
C1510      C1511   1.520       .  S
C1511      F1515   1.385       .  S
C1511      F1516   1.382       .  S
C1511      F1517   1.384       .  S
C1514      F1518   1.382       .  S
C1514      F1519   1.383       .  S
C1514      F1520   1.385       .  S
C1521      C1522   1.395       .  A
C1521      C1526   1.407       .  A
C1521      H1528   1.084       .  S
C1522      C1523   1.430       .  A
C1523      C1524   1.410       .  A
C1523      C1530   1.523       .  S
C1524      C1525   1.401       .  A
C1524      H1529   1.082       .  S
C1525      C1526   1.430       .  A
C1526      C1527   1.516       .  S
C1527      F1531   1.385       .  S
C1527      F1532   1.373       .  S
C1527      F1533   1.383       .  S
C1530      F1534   1.378       .  S
C1530      F1535   1.383       .  S
C1530      F1536   1.385       .  S
C1537      C1538   1.404       .  A
C1537      C1542   1.409       .  A
C1537      H1544   1.084       .  S
C1538      C1539   1.413       .  A
C1539      C1540   1.401       .  A
C1539      C1546   1.520       .  S
C1540      C1541   1.407       .  A
C1540      H1545   1.083       .  S
C1541      C1542   1.418       .  A
C1542      C1543   1.519       .  S
C1543      F1547   1.385       .  S
C1543      F1548   1.384       .  S
C1543      F1549   1.382       .  S
C1546      F1550   1.382       .  S
C1546      F1551   1.382       .  S
C1546      F1552   1.385       .  S
C1553      C1554   1.408       .  A
C1553      C1558   1.414   1_655  A
C1553      H1560   1.082       .  S
C1554      C1555   1.425       .  A
C1555      C1556   1.408   1_655  A
C1555      C1562   1.524       .  S
C1556      C1557   1.408       .  A
C1556      H1561   1.082       .  S
C1557      C1558   1.425       .  A
C1558      C1559   1.521       .  S
C1559      F1563   1.385       .  S
C1559      F1564   1.383       .  S
C1559      F1565   1.383       .  S
C1562      F1566   1.384       .  S
C1562      F1567   1.383       .  S
C1562      F1568   1.385       .  S
C1569      C1570   1.407       .  A
C1569      C1574   1.411       .  A
C1569      H1576   1.082       .  S
C1570      C1571   1.424       .  A
C1571      C1572   1.415       .  A
C1571      C1578   1.516       .  S
C1572      C1573   1.408       .  A
C1572      H1577   1.082       .  S
C1573      C1574   1.427       .  A
C1574      C1575   1.521       .  S
C1575      F1579   1.385       .  S
C1575      F1580   1.383       .  S
C1575      F1581   1.378       .  S
C1578      F1582   1.383       .  S
C1578      F1583   1.376       .  S
C1578      F1584   1.385       .  S
C1585      C1586   1.396       .  A
C1585      C1590   1.400       .  A
C1585      H1592   1.085       .  S
C1586      C1587   1.424       .  A
C1587      C1588   1.400       .  A
C1587      C1594   1.522       .  S
C1588      C1589   1.396       .  A
C1588      H1593   1.084       .  S
C1589      C1590   1.427       .  A
C1590      C1591   1.522       .  S
C1591      F1595   1.384       .  S
C1591      F1596   1.383       .  S
C1591      F1597   1.376       .  S
C1594      F1598   1.381       .  S
C1594      F1599   1.381       .  S
C1594      F1600   1.385       .  S
C1601      C1602   1.408       .  A
C1601      C1606   1.412       .  A
C1601      H1608   1.081       .  S
C1602      C1603   1.429       .  A
C1603      C1604   1.408       .  A
C1603      C1610   1.524       .  S
C1604      C1605   1.406       .  A
C1604      H1609   1.081       .  S
C1605      C1606   1.426       .  A
C1606      C1607   1.522       .  S
C1607      F1611   1.385       .  S
C1607      F1612   1.383       .  S
C1607      F1613   1.383       .  S
C1610      F1614   1.383       .  S
C1610      F1615   1.384       .  S
C1610      F1616   1.385       .  S
C1617      C1618   1.406       .  A
C1617      C1622   1.412       .  A
C1617      H1624   1.082       .  S
C1618      C1619   1.421       .  A
C1619      C1620   1.412       .  A
C1619      C1626   1.519       .  S
C1620      C1621   1.408       .  A
C1620      H1625   1.083       .  S
C1621      C1622   1.424       .  A
C1622      C1623   1.520       .  S
C1623      F1627   1.385       .  S
C1623      F1628   1.384       .  S
C1623      F1629   1.383       .  S
C1626      F1630   1.384       .  S
C1626      F1631   1.382       .  S
C1626      F1632   1.385       .  S
C1633      C1634   1.403       .  A
C1633      C1638   1.402       .  A
C1633      H1640   1.083       .  S
C1634      C1635   1.419       .  A
C1635      C1636   1.400       .  A
C1635      C1642   1.516       .  S
C1636      C1637   1.401       .  A
C1636      H1641   1.084       .  S
C1637      C1638   1.422       .  A
C1638      C1639   1.520       .  S
C1639      F1643   1.386       .  S
C1639      F1644   1.381       .  S
C1639      F1645   1.379       .  S
C1642      F1646   1.379       .  S
C1642      F1647   1.381       .  S
C1642      F1648   1.385       .  S
C1649      C1650   1.413       .  A
C1649      C1654   1.407       .  A
C1649      H1656   1.081       .  S
C1650      C1651   1.423       .  A
C1651      C1652   1.408       .  A
C1651      C1658   1.523       .  S
C1652      C1653   1.408       .  A
C1652      H1657   1.082       .  S
C1653      C1654   1.415       .  A
C1654      C1655   1.520       .  S
C1655      F1659   1.385       .  S
C1655      F1660   1.384       .  S
C1655      F1661   1.383       .  S
C1658      F1662   1.382       .  S
C1658      F1663   1.383       .  S
C1658      F1664   1.385       .  S
C1665      C1666   1.407       .  A
C1665      C1670   1.406       .  A
C1665      H1672   1.083       .  S
C1666      C1667   1.423       .  A
C1667      C1668   1.413       .  A
C1667      C1674   1.518       .  S
C1668      C1669   1.403       .  A
C1668      H1673   1.084       .  S
C1669      C1670   1.416       .  A
C1670      C1671   1.518       .  S
C1671      F1675   1.385       .  S
C1671      F1676   1.382       .  S
C1671      F1677   1.383       .  S
C1674      F1678   1.384       .  S
C1674      F1679   1.382       .  S
C1674      F1680   1.385       .  S
C1681      C1682   1.407   1_554  A
C1681      C1686   1.403       .  A
C1681      H1688   1.083       .  S
C1683      C1684   1.399       .  A
C1683      C1690   1.525       .  S
C1684      C1685   1.409       .  A
C1684      H1689   1.081       .  S
C1686      C1687   1.518       .  S
C1687      F1691   1.385       .  S
C1687      F1692   1.383       .  S
C1687      F1693   1.382       .  S
C1690      F1694   1.383       .  S
C1690      F1695   1.383       .  S
C1690      F1696   1.385       .  S
C1697      C1698   1.408       .  A
C1697      C1702   1.414       .  A
C1697      H1704   1.083       .  S
C1698      C1699   1.426       .  A
C1699      C1700   1.410       .  A
C1699      C1706   1.520       .  S
C1700      C1701   1.405       .  A
C1700      H1705   1.084       .  S
C1701      C1702   1.421       .  A
C1702      C1703   1.518       .  S
C1703      F1707   1.385       .  S
C1703      F1708   1.382       .  S
C1703      F1709   1.384       .  S
C1706      F1710   1.382       .  S
C1706      F1711   1.384       .  S
C1706      F1712   1.385       .  S
C1713      C1718   1.401       .  A
C1713      H1720   1.083       .  S
C1714      C1715   1.410       .  A
C1715      C1716   1.397       .  A
C1715      C1722   1.511       .  S
C1716      H1721   1.083       .  S
C1717      C1718   1.409       .  A
C1718      C1719   1.518       .  S
C1719      F1723   1.385       .  S
C1719      F1724   1.383       .  S
C1719      F1725   1.382       .  S
C1722      F1726   1.382       .  S
C1722      F1727   1.383       .  S
C1722      F1728   1.385       .  S
C1729      C1730   1.410       .  A
C1729      C1734   1.414       .  A
C1729      H1736   1.083       .  S
C1730      C1731   1.432       .  A
C1731      C1732   1.416       .  A
C1731      C1738   1.521       .  S
C1732      C1733   1.403       .  A
C1732      H1737   1.082       .  S
C1733      C1734   1.421       .  A
C1734      C1735   1.519       .  S
C1735      F1739   1.385       .  S
C1735      F1740   1.382       .  S
C1735      F1741   1.381       .  S
C1738      F1742   1.383       .  S
C1738      F1743   1.383       .  S
C1738      F1744   1.385       .  S
C1745      C1746   1.409       .  A
C1745      C1750   1.408       .  A
C1745      H1752   1.082       .  S
C1746      C1747   1.411       .  A
C1747      C1748   1.403       .  A
C1747      C1754   1.518       .  S
C1748      C1749   1.415       .  A
C1748      H1753   1.084       .  S
C1749      C1750   1.422       .  A
C1750      C1751   1.521       .  S
C1751      F1755   1.385       .  S
C1751      F1756   1.382       .  S
C1751      F1757   1.383       .  S
C1754      F1758   1.382       .  S
C1754      F1759   1.382       .  S
C1754      F1760   1.384       .  S
C1761      C1762   1.410       .  A
C1761      C1766   1.407       .  A
C1761      H1768   1.079       .  S
C1762      C1763   1.421       .  A
C1763      C1764   1.410       .  A
C1763      C1770   1.520       .  S
C1764      C1765   1.403       .  A
C1764      H1769   1.080       .  S
C1765      C1766   1.412       .  A
C1766      C1767   1.519       .  S
C1767      F1771   1.384       .  S
C1767      F1772   1.383       .  S
C1767      F1773   1.382       .  S
C1770      F1774   1.383       .  S
C1770      F1775   1.384       .  S
C1770      F1776   1.385       .  S
C1777      C1778   1.406       .  A
C1777      C1782   1.409       .  A
C1777      H1784   1.082       .  S
C1778      C1779   1.421       .  A
C1779      C1780   1.406       .  A
C1780      C1781   1.405       .  A
C1780      H1785   1.082       .  S
C1781      C1782   1.425       .  A
C1782      C1783   1.523       .  S
C1783      F1787   1.385       .  S
C1783      F1788   1.382       .  S
C1783      F1789   1.383       .  S
C1786      F1791   1.384       .  S
C1786      F1792   1.385       .  S
C1793      C1794   1.412       .  A
C1793      C1798   1.414       .  A
C1793      H1800   1.082       .  S
C1794      C1795   1.422       .  A
C1795      C1796   1.409       .  A
C1795      C1802   1.521       .  S
C1796      C1797   1.410       .  A
C1796      H1801   1.082       .  S
C1797      C1798   1.423       .  A
C1798      C1799   1.521       .  S
C1799      F1803   1.385       .  S
C1799      F1804   1.384       .  S
C1799      F1805   1.384       .  S
C1802      F1806   1.384       .  S
C1802      F1807   1.383       .  S
C1802      F1808   1.385       .  S
C1809      C1810   1.406       .  A
C1809      C1814   1.413       .  A
C1809      H1816   1.083       .  S
C1810      C1811   1.415       .  A
C1811      C1812   1.413       .  A
C1811      C1818   1.518       .  S
C1812      C1813   1.415       .  A
C1812      H1817   1.082       .  S
C1813      C1814   1.426       .  A
C1814      C1815   1.520       .  S
C1815      F1819   1.385       .  S
C1815      F1820   1.383       .  S
C1815      F1821   1.383       .  S
C1818      F1822   1.382       .  S
C1818      F1823   1.383       .  S
C1818      F1824   1.384       .  S
C1825      C1826   1.399       .  A
C1825      C1830   1.412   1_655  A
C1825      H1832   1.083       .  S
C1826      C1827   1.416       .  A
C1827      C1828   1.411   1_655  A
C1827      C1834   1.518       .  S
C1828      C1829   1.411       .  A
C1828      H1833   1.082       .  S
C1829      C1830   1.432       .  A
C1830      C1831   1.523       .  S
C1831      F1835   1.385       .  S
C1831      F1836   1.383       .  S
C1831      F1837   1.382       .  S
C1834      F1838   1.382       .  S
C1834      F1839   1.383       .  S
C1834      F1840   1.384       .  S
C1841      C1842   1.403       .  A
C1841      C1846   1.411   1_565  A
C1841      H1848   1.083       .  S
C1843      C1844   1.406   1_565  A
C1843      C1850   1.521       .  S
C1844      C1845   1.400       .  A
C1844      H1849   1.083       .  S
C1846      C1847   1.521       .  S
C1847      F1851   1.385       .  S
C1847      F1852   1.384       .  S
C1847      F1853   1.383       .  S
C1850      F1854   1.382       .  S
C1850      F1855   1.383       .  S
C1850      F1856   1.385       .  S
C1857      C1858   1.402       .  A
C1857      C1862   1.407       .  A
C1857      H1864   1.083       .  S
C1858      C1859   1.431       .  A
C1859      C1860   1.411       .  A
C1859      C1866   1.522       .  S
C1860      C1861   1.398       .  A
C1860      H1865   1.083       .  S
C1861      C1862   1.421       .  A
C1862      C1863   1.519       .  S
C1863      F1867   1.385       .  S
C1863      F1868   1.382       .  S
C1863      F1869   1.384       .  S
C1866      F1870   1.385       .  S
C1866      F1871   1.384       .  S
C1866      F1872   1.382       .  S
C1873      C1874   1.408       .  A
C1873      C1878   1.409       .  A
C1873      H1880   1.080       .  S
C1874      C1875   1.414       .  A
C1875      C1876   1.408       .  A
C1875      C1882   1.518       .  S
C1876      C1877   1.411       .  A
C1876      H1881   1.083       .  S
C1877      C1878   1.416       .  A
C1878      C1879   1.518       .  S
C1879      F1883   1.385       .  S
C1879      F1884   1.381       .  S
C1879      F1885   1.382       .  S
C1882      F1886   1.382       .  S
C1882      F1887   1.381       .  S
C1882      F1888   1.385       .  S
C1889      C1890   1.401       .  A
C1889      C1894   1.409   1_565  A
C1889      H1896   1.083       .  S
C1891      C1892   1.409   1_565  A
C1891      C1898   1.516       .  S
C1892      C1893   1.405       .  A
C1892      H1897   1.083       .  S
C1894      C1895   1.525       .  S
C1895      F1899   1.385       .  S
C1895      F1900   1.384       .  S
C1895      F1901   1.384       .  S
C1898      F1902   1.380       .  S
C1898      F1903   1.384       .  S
C1898      F1904   1.385       .  S
C1905      C1906   1.399       .  A
C1905      C1910   1.405       .  A
C1905      H1912   1.080       .  S
C1906      C1907   1.416       .  A
C1907      C1908   1.408       .  A
C1907      C1914   1.520       .  S
C1908      C1909   1.408       .  A
C1908      H1913   1.084       .  S
C1909      C1910   1.419       .  A
C1910      C1911   1.518       .  S
C1911      F1915   1.385       .  S
C1911      F1916   1.384       .  S
C1911      F1917   1.382       .  S
C1914      F1918   1.381       .  S
C1914      F1919   1.380       .  S
C1914      F1920   1.384       .  S
C1921      C1922   1.410       .  A
C1921      C1926   1.410       .  A
C1921      H1928   1.082       .  S
C1922      C1923   1.421       .  A
C1923      C1924   1.408       .  A
C1923      C1930   1.520       .  S
C1924      C1925   1.410       .  A
C1924      H1929   1.081       .  S
C1925      C1926   1.422       .  A
C1926      C1927   1.521       .  S
C1927      F1931   1.385       .  S
C1927      F1932   1.383       .  S
C1927      F1933   1.383       .  S
C1930      F1934   1.380       .  S
C1930      F1935   1.383       .  S
C1930      F1936   1.385       .  S
C1937      C1938   1.403       .  A
C1937      C1942   1.409   1_455  A
C1938      C1939   1.421       .  A
C1939      C1940   1.410   1_455  A
C1939      C1946   1.516       .  S
C1940      C1941   1.402       .  A
C1940      H1945   1.083       .  S
C1941      C1942   1.419       .  A
C1943      F1947   1.385       .  S
C1943      F1948   1.382       .  S
C1943      F1949   1.382       .  S
C1946      F1950   1.382       .  S
C1946      F1951   1.383       .  S
C1946      F1952   1.385       .  S
C1953      C1954   1.414       .  A
C1953      H1960   1.081       .  S
C1954      C1955   1.422       .  A
C1955      C1956   1.415       .  A
C1955      C1962   1.518       .  S
C1956      H1961   1.083       .  S
C1957      C1958   1.422       .  A
C1958      C1959   1.522       .  S
C1959      F1963   1.385       .  S
C1959      F1964   1.383       .  S
C1962      F1967   1.384       .  S
C1962      F1968   1.385       .  S
C1969      C1974   1.399       .  A
C1969      H1976   1.082       .  S
C1970      C1971   1.414       .  A
C1971      C1972   1.397   1_556  A
C1971      C1978   1.522       .  S
C1972      H1977   1.082       .  S
C1973      C1974   1.414       .  A
C1974      C1975   1.522       .  S
C1975      F1979   1.385       .  S
C1975      F1980   1.383       .  S
C1975      F1981   1.383       .  S
C1978      F1982   1.383       .  S
C1978      F1983   1.383       .  S
C1978      F1984   1.385       .  S
C1985      C1986   1.406       .  A
C1985      C1990   1.413       .  A
C1985      H1992   1.083       .  S
C1986      C1987   1.423       .  A
C1987      C1988   1.415       .  A
C1987      C1994   1.518       .  S
C1988      C1989   1.409       .  A
C1988      H1993   1.083       .  S
C1989      C1990   1.429       .  A
C1990      C1991   1.523       .  S
C1991      F1995   1.385       .  S
C1991      F1996   1.383       .  S
C1991      F1997   1.384       .  S
C1994      F1998   1.383       .  S
C1994      F1999   1.384       .  S
C1994      F2000   1.385       .  S
C2001      C2002   1.402       .  A
C2001      C2006   1.408       .  A
C2001      H2008   1.083       .  S
C2003      C2004   1.406       .  A
C2003      C2010   1.518       .  S
C2004      C2005   1.401       .  A
C2004      H2009   1.083       .  S
C2006      C2007   1.522       .  S
C2007      F2011   1.385       .  S
C2007      F2012   1.383       .  S
C2007      F2013   1.384       .  S
C2010      F2014   1.382       .  S
C2010      F2015   1.384       .  S
C2010      F2016   1.385       .  S
C2017      C2018   1.393       .  A
C2017      C2022   1.398       .  A
C2017      H2024   1.084       .  S
C2018      C2019   1.419       .  A
C2019      C2026   1.520       .  S
C2020      C2021   1.394       .  A
C2020      H2025   1.080       .  S
C2023      F2028   1.382       .  S
C2026      F2031   1.380       .  S
C2026      F2032   1.385       .  S
C2033      C2034   1.411       .  A
C2033      C2038   1.417       .  A
C2033      H2040   1.082       .  S
C2034      C2035   1.421       .  A
C2035      C2036   1.412       .  A
C2035      C2042   1.520       .  S
C2036      C2037   1.412       .  A
C2036      H2041   1.083       .  S
C2037      C2038   1.423       .  A
C2038      C2039   1.517       .  S
C2039      F2043   1.385       .  S
C2039      F2044   1.379       .  S
C2039      F2045   1.383       .  S
C2042      F2046   1.382       .  S
C2042      F2047   1.384       .  S
C2042      F2048   1.385       .  S
C2049      C2050   1.408       .  A
C2049      C2054   1.408       .  A
C2049      H2056   1.082       .  S
C2050      C2051   1.424       .  A
C2051      C2052   1.404       .  A
C2051      C2058   1.524       .  S
C2052      C2053   1.406       .  A
C2052      H2057   1.081       .  S
C2053      C2054   1.423       .  A
C2054      C2055   1.522       .  S
C2055      F2059   1.385       .  S
C2055      F2060   1.383       .  S
C2058      F2062   1.384       .  S
C2058      F2063   1.384       .  S
C2058      F2064   1.385       .  S
C2065      C2066   1.406       .  A
C2065      C2070   1.415   1_565  A
C2065      H2072   1.083       .  S
C2066      C2067   1.429       .  A
C2067      C2068   1.402   1_565  A
C2067      C2074   1.524       .  S
C2068      C2069   1.394       .  A
C2068      H2073   1.084       .  S
C2069      C2070   1.416       .  A
C2070      C2071   1.516       .  S
C2071      F2075   1.384       .  S
C2071      F2076   1.384       .  S
C2071      F2077   1.382       .  S
C2074      F2078   1.381       .  S
C2074      F2079   1.382       .  S
C2074      F2080   1.385       .  S
C2081      C2082   1.406       .  A
C2081      C2086   1.408       .  A
C2081      H2088   1.083       .  S
C2082      C2083   1.420       .  A
C2083      C2084   1.402       .  A
C2083      C2090   1.519       .  S
C2084      C2085   1.400       .  A
C2084      H2089   1.084       .  S
C2085      C2086   1.413       .  A
C2086      C2087   1.515       .  S
C2087      F2091   1.384       .  S
C2087      F2092   1.379       .  S
C2087      F2093   1.382       .  S
C2090      F2094   1.384       .  S
C2090      F2095   1.377       .  S
C2090      F2096   1.384       .  S
C2097      C2098   1.410       .  A
C2097      C2102   1.415       .  A
C2097      H2104   1.083       .  S
C2098      C2099   1.430       .  A
C2099      C2100   1.413       .  A
C2099      C2106   1.518       .  S
C2100      C2101   1.403       .  A
C2100      H2105   1.083       .  S
C2101      C2102   1.423       .  A
C2102      C2103   1.520       .  S
C2103      F2107   1.385       .  S
C2103      F2108   1.383       .  S
C2103      F2109   1.383       .  S
C2106      F2110   1.382       .  S
C2106      F2111   1.384       .  S
C2106      F2112   1.385       .  S
C2113      C2114   1.417       .  A
C2113      C2118   1.411       .  A
C2113      H2120   1.082       .  S
C2114      C2115   1.423       .  A
C2115      C2116   1.410       .  A
C2115      C2122   1.521       .  S
C2116      C2117   1.409       .  A
C2116      H2121   1.082       .  S
C2117      C2118   1.411       .  A
C2118      C2119   1.518       .  S
C2119      F2123   1.385       .  S
C2119      F2124   1.383       .  S
C2119      F2125   1.380       .  S
C2122      F2126   1.383       .  S
C2122      F2127   1.380       .  S
C2122      F2128   1.385       .  S
C2129      C2130   1.412       .  A
C2129      C2134   1.405       .  A
C2129      H2136   1.082       .  S
C2130      C2131   1.422       .  A
C2131      C2132   1.409       .  A
C2131      C2138   1.520       .  S
C2132      C2133   1.409       .  A
C2132      H2137   1.083       .  S
C2133      C2134   1.419       .  A
C2134      C2135   1.523       .  S
C2135      F2139   1.385       .  S
C2135      F2140   1.383       .  S
C2135      F2141   1.384       .  S
C2138      F2142   1.381       .  S
C2138      F2143   1.382       .  S
C2138      F2144   1.385       .  S
C2145      C2146   1.412       .  A
C2145      C2150   1.411   1_565  A
C2145      H2152   1.082       .  S
C2146      C2147   1.420   1_565  A
C2147      C2148   1.409       .  A
C2147      C2154   1.521       .  S
C2148      C2149   1.413       .  A
C2148      H2153   1.082       .  S
C2149      C2150   1.420       .  A
C2150      C2151   1.520       .  S
C2151      F2155   1.385   1_545  S
C2151      F2156   1.383       .  S
C2151      F2157   1.383       .  S
C2154      F2158   1.383   1_545  S
C2154      F2159   1.383   1_545  S
C2154      F2160   1.385       .  S
C2161      C2162   1.413       .  A
C2161      C2166   1.411       .  A
C2161      H2168   1.082       .  S
C2162      C2163   1.426       .  A
C2163      C2164   1.405       .  A
C2163      C2170   1.523       .  S
C2164      C2165   1.403       .  A
C2164      H2169   1.080       .  S
C2165      C2166   1.417       .  A
C2166      C2167   1.519       .  S
C2167      F2171   1.385       .  S
C2167      F2172   1.382       .  S
C2167      F2173   1.382       .  S
C2170      F2174   1.381       .  S
C2170      F2175   1.383       .  S
C2170      F2176   1.385       .  S
C2177      C2178   1.401       .  A
C2177      C2182   1.407       .  A
C2177      H2184   1.083       .  S
C2178      C2179   1.421       .  A
C2179      C2180   1.404       .  A
C2179      C2186   1.523       .  S
C2180      C2181   1.407       .  A
C2180      H2185   1.084       .  S
C2181      C2182   1.423       .  A
C2182      C2183   1.520       .  S
C2183      F2187   1.385       .  S
C2183      F2188   1.383       .  S
C2183      F2189   1.384       .  S
C2186      F2190   1.380       .  S
C2186      F2191   1.384       .  S
C2186      F2192   1.384       .  S
C2193      C2194   1.407       .  A
C2193      C2198   1.409       .  A
C2193      H2200   1.082       .  S
C2194      C2195   1.422       .  A
C2195      C2196   1.411       .  A
C2195      C2202   1.522       .  S
C2196      C2197   1.409       .  A
C2196      H2201   1.082       .  S
C2197      C2198   1.424       .  A
C2198      C2199   1.522       .  S
C2199      F2203   1.385       .  S
C2199      F2204   1.383       .  S
C2199      F2205   1.383       .  S
C2202      F2206   1.385       .  S
C2202      F2207   1.383       .  S
C2202      F2208   1.384       .  S
C2209      C2210   1.405       .  A
C2209      C2214   1.401       .  A
C2209      H2216   1.083       .  S
C2210      C2211   1.408       .  A
C2211      C2212   1.401       .  A
C2211      C2218   1.517       .  S
C2212      C2213   1.406       .  A
C2212      H2217   1.083       .  S
C2213      C2214   1.411       .  A
C2214      C2215   1.518       .  S
C2215      F2219   1.385       .  S
C2215      F2220   1.382       .  S
C2215      F2221   1.383       .  S
C2218      F2222   1.383       .  S
C2218      F2223   1.382       .  S
C2218      F2224   1.385       .  S
C2225      C2226   1.412       .  A
C2225      C2230   1.416       .  A
C2225      H2232   1.082       .  S
C2226      C2227   1.429       .  A
C2227      C2228   1.415       .  A
C2227      C2234   1.522       .  S
C2228      C2229   1.406       .  A
C2228      H2233   1.083       .  S
C2229      C2230   1.421       .  A
C2230      C2231   1.520       .  S
C2231      F2235   1.385       .  S
C2231      F2236   1.383       .  S
C2231      F2237   1.381       .  S
C2234      F2238   1.384       .  S
C2234      F2239   1.383       .  S
C2234      F2240   1.385       .  S
