geometry optimzed in LAMMPS
_audit_creation_date              2020-12-01 
_audit_creation_method            'lammps2cif' 
_symmetry_space_group_name_H-M    'P1' 
_symmetry_Int_Tables_number       1 
_symmetry_cell_setting            triclinic 
loop_ 
_symmetry_equiv_pos_as_xyz 
  x,y,z 
_cell_length_a                    43.16937094 
_cell_length_b                    29.142760781476312 
_cell_length_c                    54.23315965971023 
_cell_angle_alpha                 90.03448938246702 
_cell_angle_beta                  90.39672036492456 
_cell_angle_gamma                 90.60277138280642 
loop_ 
_atom_site_label 
_atom_site_type_symbol 
_atom_site_fract_x 
_atom_site_fract_y 
_atom_site_fract_z 
_atom_site_charge 
O1          O  0.72063492  0.29818377  0.62511081    -0.81600
C2          C  0.63888754  0.41488802  0.58152170     0.97700
O3          O  0.64653895  0.37349470  0.57906015    -0.70800
O4          O  0.68932508  0.31197041  0.57963952    -0.74300
Al5        Al  0.65933403  0.33002144  0.60257058     1.49000
C6          C  0.71519815  0.32736228  0.57302363     0.93000
O7          O  0.73698035  0.42609772  0.61729600    -0.80600
O8          O  0.68756135  0.41695960  0.66273081    -0.74100
Al9        Al  0.72421056  0.36323777  0.62073542     1.90100
O10         O  0.69369312  0.46357500  0.61932517    -0.73200
O11         O  0.63280880  0.38971262  0.64776365    -0.73000
O12         O  0.64102507  0.43480137  0.60234566    -0.78700
O13         O  0.62245561  0.33646278  0.62092876    -0.76900
O14         O  0.68300232  0.37179318  0.61860831    -1.13000
O15         O  0.67073906  0.28163741  0.62415436    -0.72200
C16         C  0.69849723  0.26972988  0.62762765     0.98500
C17         C  0.72246372  0.46324679  0.61699181     0.94900
Al18       Al  0.66532127  0.42140779  0.63182271     1.55600
O19         O  0.72947406  0.35670346  0.58597795    -0.76900
C20         C  0.61500299  0.35920416  0.63951987     0.99000
C21         C  0.71082261  0.39427203  0.66993815     0.93900
O22         O  0.72529616  0.36867118  0.65535495    -0.82200
O23         O  0.77992762  0.11027220  0.34791562    -0.81600
C24         C  0.86210825  0.06301299  0.41987238     0.97700
O25         O  0.84946309  0.04340263  0.40146194    -0.70800
O26         O  0.80381164  0.03232873  0.36967055    -0.74300
Al27       Al  0.83899848  0.07124331  0.37045403     1.49000
C28         C  0.77897158  0.03088703  0.38158865     0.93000
O29         O  0.77284054  0.14747052  0.41480117    -0.80600
O30         O  0.82544365  0.21001238  0.39497661    -0.74100
Al31       Al  0.78061579  0.12758373  0.38192519     1.90100
O32         O  0.81846468  0.14958549  0.43254670    -0.73200
O33         O  0.87453444  0.16703323  0.38070090    -0.73000
O34         O  0.86737628  0.10582194  0.41971511    -0.78700
O35         O  0.87978218  0.09723867  0.36731986    -0.76900
O36         O  0.82127277  0.11835214  0.38582891    -1.13000
O37         O  0.82835012  0.09507850  0.33821883    -0.72200
C38         C  0.80043452  0.10279487  0.33186674     0.98500
C39         C  0.78961584  0.15363577  0.43361103     0.94900
Al40       Al  0.84444375  0.15484870  0.40512245     1.55600
O41         O  0.76927766  0.06642155  0.39225944    -0.76900
C42         C  0.89053231  0.13717466  0.37027174     0.99000
C43         C  0.80348944  0.22031115  0.38067639     0.93900
O44         O  0.78617466  0.18961736  0.37127001    -0.82200
O45         O  0.28893724  0.39891627  0.65808815    -0.81600
C46         C  0.37437477  0.43810191  0.58674234     0.97700
O47         O  0.36164162  0.46030248  0.60397818    -0.70800
O48         O  0.31594955  0.47560179  0.63445657    -0.74300
Al49       Al  0.34963700  0.43516383  0.63576474     1.49000
C50         C  0.29055448  0.47637165  0.62296528     0.93000
O51         O  0.28242888  0.35807032  0.59156729    -0.80600
O52         O  0.32949711  0.29655701  0.60991232    -0.74100
Al53       Al  0.28983458  0.37978395  0.62449809     1.90100
O54         O  0.32804292  0.36157826  0.57409867    -0.73200
O55         O  0.37974841  0.33475516  0.62817637    -0.73000
O56         O  0.38011498  0.39615238  0.58968051    -0.78700
O57         O  0.38868254  0.40509071  0.64073292    -0.76900
O58         O  0.33051784  0.38822397  0.62100709    -1.13000
O59         O  0.33730745  0.41482183  0.66851041    -0.72200
C60         C  0.30921942  0.40712293  0.67447777     0.98500
C61         C  0.29929604  0.35499720  0.57269903     0.94900
Al62       Al  0.35244975  0.35044553  0.60217833     1.55600
O63         O  0.27958552  0.44026905  0.61322794    -0.76900
C64         C  0.39672528  0.36359440  0.63923146     0.99000
C65         C  0.30898354  0.28731130  0.62557936     0.93900
O66         O  0.29468223  0.31881185  0.63649380    -0.82200
O67         O  0.21641377  0.20664251  0.37764210    -0.81600
C68         C  0.14258253  0.08167193  0.42809230     0.97700
O69         O  0.13414047  0.12256870  0.42447473    -0.70800
O70         O  0.18142538  0.17179109  0.43778493    -0.74300
Al71       Al  0.15676499  0.17148426  0.40916029     1.49000
C72         C  0.21023500  0.17626557  0.44009917     0.93000
O73         O  0.23558749  0.08670268  0.40164096    -0.80600
O74         O  0.17696049  0.10339260  0.34587288    -0.74100
Al75       Al  0.22250436  0.14621383  0.38975085     1.90100
O76         O  0.20223183  0.04786168  0.37960908    -0.73200
O77         O  0.12534936  0.10423943  0.37396952    -0.73000
O78         O  0.15670333  0.05985634  0.41134076    -0.78700
O79         O  0.12723668  0.17710620  0.38279994    -0.76900
O80         O  0.18201958  0.13433530  0.39245739    -1.13000
O81         O  0.17527455  0.22741291  0.39822302    -0.72200
C82         C  0.19853667  0.23740757  0.38530776     0.98500
C83         C  0.22750861  0.04997074  0.39096103     0.94900
Al84       Al  0.16636059  0.08331316  0.37890977     1.55600
O85         O  0.22814230  0.16867863  0.42235198    -0.76900
C86         C  0.11299119  0.14304629  0.37374219     0.99000
C87         C  0.20460506  0.11460317  0.33996474     0.93900
O88         O  0.22421709  0.12688285  0.35622932    -0.82200
O89         O  0.22712912  0.81850333  0.63565142    -0.81600
C90         C  0.14531344  0.93696674  0.59138355     0.97700
O91         O  0.13833651  0.89493153  0.59404062    -0.70800
O92         O  0.18575497  0.85153768  0.57762544    -0.74300
Al93       Al  0.16348283  0.84709346  0.60722915     1.49000
C94         C  0.21437966  0.85037057  0.57410153     0.93000
O95         O  0.23716529  0.94062108  0.61248465    -0.80600
O96         O  0.18628227  0.91007721  0.67173437    -0.74100
Al97       Al  0.22921753  0.87945527  0.62426707     1.90100
O98         O  0.20658930  0.97319640  0.63887236    -0.73200
O99         O  0.13167766  0.90694433  0.64538770    -0.73000
O100        O  0.15877234  0.95912917  0.60868312    -0.78700
O101        O  0.13601077  0.83578362  0.63399330    -0.76900
O102        O  0.18825915  0.88579165  0.62393708    -1.13000
O103        O  0.18507888  0.79288514  0.61684149    -0.72200
C104        C  0.20978780  0.78579724  0.62880650     0.98500
C105        C  0.22932415  0.97542897  0.62463156     0.94900
Al106      Al  0.17186201  0.93319994  0.63992336     1.55600
O107        O  0.23324999  0.85902257  0.59127005    -0.76900
C108        C  0.12039961  0.86707738  0.64371624     0.99000
C109        C  0.21498734  0.90206193  0.67571145     0.93900
O110        O  0.23353965  0.89698174  0.65794762    -0.82200
O111        O  0.27907142  0.62607084  0.35261776    -0.81600
C112        C  0.36402241  0.58584436  0.42470239     0.97700
O113        O  0.34976313  0.56361757  0.40792205    -0.70800
O114        O  0.30296407  0.54976142  0.37733609    -0.74300
Al115      Al  0.33828614  0.58751126  0.37577003     1.49000
C116        C  0.27776454  0.55068786  0.38870016     0.93000
O117        O  0.27497422  0.67164695  0.41823826    -0.80600
O118        O  0.32576312  0.72949383  0.39743004    -0.74100
Al119      Al  0.28111221  0.64741359  0.38585785     1.90100
O120        O  0.32102938  0.66940649  0.43538899    -0.73200
O121        O  0.37486649  0.68510220  0.38139889    -0.73000
O122        O  0.37048518  0.62777401  0.42166685    -0.78700
O123        O  0.37839206  0.61314771  0.37054399    -0.76900
O124        O  0.32167292  0.63697247  0.38944722    -1.13000
O125        O  0.32666692  0.60659767  0.34275620    -0.72200
C126        C  0.29875627  0.61481006  0.33659810     0.98500
C127        C  0.29245610  0.67637613  0.43682001     0.94900
Al128      Al  0.34585687  0.67473941  0.40725603     1.55600
O129        O  0.26862569  0.58768656  0.39828606    -0.76900
C130        C  0.38966166  0.65314032  0.37136480     0.99000
C131        C  0.30405392  0.73922775  0.38275962     0.93900
O132        O  0.28762227  0.70795296  0.37294697    -0.82200
O133        O  0.78492114  0.88462350  0.65555413    -0.81600
C134        C  0.86687061  0.92223016  0.58293193     0.97700
O135        O  0.85784114  0.94383703  0.60187804    -0.70800
O136        O  0.81358446  0.96166095  0.63316401    -0.74300
Al137      Al  0.84588665  0.91978073  0.63338068     1.49000
C138        C  0.78851111  0.96568839  0.62179325     0.93000
O139        O  0.77532192  0.85034227  0.58826717    -0.80600
O140        O  0.82863125  0.77991174  0.61591189    -0.74100
Al141      Al  0.78435395  0.86856119  0.62145035     1.90100
O142        O  0.82007900  0.82881748  0.57432552    -0.73200
O143        O  0.88052521  0.82405675  0.62383656    -0.73000
O144        O  0.86853430  0.87879477  0.58280266    -0.78700
O145        O  0.88549334  0.89306953  0.63795435    -0.76900
O146        O  0.82581986  0.87286407  0.61863269    -1.13000
O147        O  0.83357588  0.89971276  0.66604861    -0.72200
C148        C  0.80535455  0.89257381  0.67194313     0.98500
C149        C  0.79153914  0.83349730  0.57142172     0.94900
Al150      Al  0.84745223  0.83200969  0.60107647     1.55600
O151        O  0.77615544  0.93116614  0.61153553    -0.76900
C152        C  0.89660280  0.85417180  0.63440624     0.99000
C153        C  0.80335856  0.77361708  0.62702628     0.93900
O154        O  0.78535382  0.80638731  0.63150475    -0.82200
O155        O  0.71676268  0.68386178  0.37132011    -0.81600
C156        C  0.63601284  0.56453693  0.42143916     0.97700
O157        O  0.63432301  0.60781156  0.42237855    -0.70800
O158        O  0.68704295  0.64415303  0.43396774    -0.74300
Al159      Al  0.65965054  0.65462461  0.40767133     1.49000
C160        C  0.71591898  0.64902720  0.43394668     0.93000
O161        O  0.72806582  0.55930135  0.39156522    -0.80600
O162        O  0.66802658  0.59695909  0.33923103    -0.74100
Al163      Al  0.71984462  0.62186208  0.38185566     1.90100
O164        O  0.68975143  0.53026760  0.36975928    -0.73200
O165        O  0.61879852  0.60423296  0.36937183    -0.73000
O166        O  0.64623063  0.54485901  0.40233217    -0.78700
O167        O  0.62859597  0.67188577  0.38474142    -0.76900
O168        O  0.67897606  0.61680912  0.38701339    -1.13000
O169        O  0.68177160  0.70810319  0.39746920    -0.72200
C170        C  0.70258243  0.71614002  0.38176718     0.98500
C171        C  0.71544197  0.52564030  0.38046917     0.94900
Al172      Al  0.65736416  0.57295000  0.37149161     1.55600
O173        O  0.73112199  0.64203142  0.41455655    -0.76900
C174        C  0.61066234  0.64481236  0.37351193     0.99000
C175        C  0.69595596  0.60124806  0.33215724     0.93900
O176        O  0.71783421  0.60459836  0.34770284    -0.82200
O177        O  0.79219845  0.32987518  0.87176062    -0.81600
C178        C  0.87144827  0.45283934  0.92117483     0.97700
O179        O  0.87672448  0.41025264  0.91941817    -0.70800
O180        O  0.82755138  0.36526078  0.93289564    -0.74300
Al181      Al  0.85231124  0.36186364  0.90455289     1.49000
C182        C  0.79861112  0.36206432  0.93448529     0.93000
O183        O  0.77735109  0.45097714  0.89523131    -0.80600
O184        O  0.83467663  0.42622944  0.83977593    -0.74100
Al185      Al  0.78792281  0.39078335  0.88358283     1.90100
O186        O  0.81118905  0.48706765  0.87256373    -0.73200
O187        O  0.88639890  0.42337861  0.86772442    -0.73000
O188        O  0.85771073  0.47391450  0.90383511    -0.78700
O189        O  0.88139291  0.35190142  0.87878148    -0.76900
O190        O  0.82871104  0.39986108  0.88678464    -1.13000
O191        O  0.83166283  0.30661125  0.89405804    -0.72200
C192        C  0.80858745  0.29794872  0.88032434     0.98500
C193        C  0.78642085  0.48707422  0.88458655     0.94900
Al194      Al  0.84618909  0.44841686  0.87222467     1.55600
O195        O  0.78139178  0.36936073  0.91612654    -0.76900
C196        C  0.89692105  0.38335870  0.86867429     0.99000
C197        C  0.80673823  0.41729360  0.83366270     0.93900
O198        O  0.78635851  0.40966002  0.84987215    -0.82200
O199        O  0.71941651  0.14891573  0.15540777    -0.81600
C200        C  0.64031077  0.11120234  0.07495640     0.97700
O201        O  0.63911188  0.08863339  0.09504253    -0.70800
O202        O  0.69061064  0.05633554  0.11179335    -0.74300
Al203      Al  0.66229087  0.09648052  0.12606445     1.49000
C204        C  0.71954568  0.05547175  0.11326311     0.93000
O205        O  0.73193151  0.16138713  0.08706547    -0.80600
O206        O  0.67155852  0.23607422  0.12468235    -0.74100
Al207      Al  0.72307754  0.15451790  0.12130223     1.90100
O208        O  0.69471313  0.21037411  0.08007326    -0.73200
O209        O  0.62309866  0.18317258  0.11587155    -0.73000
O210        O  0.65043701  0.15181227  0.07464213    -0.78700
O211        O  0.62936062  0.12770133  0.14218143    -0.76900
O212        O  0.68221803  0.14711988  0.11612129    -1.13000
O213        O  0.68336907  0.09496579  0.15823068    -0.72200
C214        C  0.70518695  0.11897449  0.16778902     0.98500
C215        C  0.71999459  0.19254619  0.07407507     0.94900
Al216      Al  0.66158215  0.19126186  0.10033545     1.55600
O217        O  0.73469743  0.09121709  0.11866082    -0.76900
C218        C  0.61327410  0.15966578  0.13352944     0.99000
C219        C  0.69939066  0.24803244  0.12819713     0.93900
O220        O  0.72106770  0.21952303  0.12563110    -0.82200
O221        O  0.22999364  0.37729256  0.85336777    -0.81600
C222        C  0.14611897  0.40902481  0.92914087     0.97700
O223        O  0.14808957  0.43252333  0.90933484    -0.70800
O224        O  0.19770847  0.46362909  0.88763815    -0.74300
Al225      Al  0.16832519  0.42038275  0.87771099     1.49000
C226        C  0.22578413  0.46430033  0.89325555     0.93000
O227        O  0.23636171  0.35326217  0.92169442    -0.80600
O228        O  0.17815998  0.28088648  0.88157579    -0.74100
Al229      Al  0.22954273  0.36551591  0.88754463     1.90100
O230        O  0.19694311  0.30724421  0.92689797    -0.73200
O231        O  0.12821657  0.33117699  0.88774828    -0.73000
O232        O  0.15301784  0.36697479  0.92948038    -0.78700
O233        O  0.13301315  0.39015735  0.86398875    -0.76900
O234        O  0.18798377  0.37099530  0.88978776    -1.13000
O235        O  0.18715810  0.41520450  0.84523612    -0.72200
C236        C  0.21271239  0.39813836  0.83834830     0.98500
C237        C  0.22285749  0.32224199  0.93373119     0.94900
Al238      Al  0.16609766  0.32624684  0.90479092     1.55600
O239        O  0.24064726  0.42768053  0.89471509    -0.76900
C240        C  0.11734940  0.35677800  0.87152809     0.99000
C241        C  0.20623113  0.27137112  0.87768437     0.93900
O242        O  0.22741008  0.30147858  0.88017321    -0.82200
O243        O  0.28459048  0.18739406  0.13611953    -0.81600
C244        C  0.37069166  0.07252031  0.09152780     0.97700
O245        O  0.37294674  0.11591027  0.09193269    -0.70800
O246        O  0.32325475  0.15783078  0.07895829    -0.74300
Al247      Al  0.34821239  0.16192465  0.10727757     1.49000
C248        C  0.29463282  0.15288134  0.07577186     0.93000
O249        O  0.27684164  0.06100257  0.11713109    -0.80600
O250        O  0.33174802  0.09705190  0.17246144    -0.74100
Al251      Al  0.28438309  0.12428673  0.12663116     1.90100
O252        O  0.31339657  0.03224446  0.13988335    -0.73200
O253        O  0.38372954  0.10502309  0.14586146    -0.73000
O254        O  0.35911971  0.05069835  0.10958920    -0.78700
O255        O  0.37827581  0.17463290  0.13257401    -0.76900
O256        O  0.32584853  0.12120435  0.12480112    -1.13000
O257        O  0.32654304  0.21455691  0.11838409    -0.72200
C258        C  0.30147349  0.22087012  0.12964436     0.98500
C259        C  0.28894196  0.02704876  0.12774873     0.94900
Al260      Al  0.34535206  0.07570139  0.14051276     1.55600
O261        O  0.27735904  0.14032405  0.09313225    -0.76900
C262        C  0.39394449  0.14508313  0.14381001     0.99000
C263        C  0.30343910  0.10390947  0.17769319     0.93900
O264        O  0.28340237  0.10960639  0.16084095    -0.82200
O265        O  0.28883636  0.81028777  0.88226202    -0.81600
C266        C  0.37224356  0.93028463  0.92937988     0.97700
O267        O  0.37494184  0.88708169  0.92976161    -0.70800
O268        O  0.32508834  0.84524065  0.94348794    -0.74300
Al269      Al  0.34987351  0.83942382  0.91518641     1.49000
C270        C  0.29627583  0.84065750  0.94496521     0.93000
O271        O  0.27794993  0.93145653  0.90652342    -0.80600
O272        O  0.33060980  0.90211001  0.84850484    -0.74100
Al273      Al  0.28595188  0.87083280  0.89441015     1.90100
O274        O  0.31226843  0.96517765  0.88287491    -0.73200
O275        O  0.38400421  0.89492472  0.87464556    -0.73000
O276        O  0.36019914  0.95012502  0.91093997    -0.78700
O277        O  0.37944459  0.82645785  0.89028407    -0.76900
O278        O  0.32716375  0.87756419  0.89668152    -1.13000
O279        O  0.32798391  0.78523567  0.90464898    -0.72200
C280        C  0.30469753  0.77775537  0.89086642     0.98500
C281        C  0.28895853  0.96719310  0.89657161     0.94900
Al282      Al  0.34543399  0.92381179  0.88056537     1.55600
O283        O  0.27919365  0.84810027  0.92662401    -0.76900
C284        C  0.39459434  0.85540008  0.87800239     0.99000
C285        C  0.30182642  0.89680262  0.84392802     0.93900
O286        O  0.28291006  0.89071526  0.86125429    -0.82200
O287        O  0.21745885  0.60764949  0.15756417    -0.81600
C288        C  0.13069336  0.56858112  0.08707872     0.97700
O289        O  0.14349828  0.54678858  0.10456546    -0.70800
O290        O  0.18986209  0.53047140  0.13499342    -0.74300
Al291      Al  0.15622111  0.57154727  0.13608599     1.49000
C292        C  0.21454004  0.52906722  0.12287319     0.93000
O293        O  0.22251607  0.64757015  0.09136175    -0.80600
O294        O  0.17451459  0.71111986  0.11241591    -0.74100
Al295      Al  0.21590138  0.62617943  0.12400441     1.90100
O296        O  0.17634664  0.65006200  0.07450409    -0.73200
O297        O  0.12483619  0.67090400  0.12901376    -0.73000
O298        O  0.12562763  0.61100896  0.08921783    -0.78700
O299        O  0.11694835  0.60045088  0.14112597    -0.76900
O300        O  0.17493298  0.61882927  0.12117178    -1.13000
O301        O  0.16938270  0.59205740  0.16862932    -0.72200
C302        C  0.19768089  0.59995926  0.17419527     0.98500
C303        C  0.20521769  0.65449662  0.07297144     0.94900
Al304      Al  0.15229684  0.65738373  0.10302588     1.55600
O305        O  0.22484127  0.56494806  0.11257339    -0.76900
C306        C  0.10819665  0.64151108  0.13964532     0.99000
C307        C  0.19719394  0.71987035  0.12641754     0.93900
O308        O  0.21310828  0.68793637  0.13563845    -0.82200
O309        O  0.72629206  0.90809859  0.85103163    -0.81600
C310        C  0.63774916  0.94784385  0.91902054     0.97700
O311        O  0.65181607  0.96921581  0.90197788    -0.70800
O312        O  0.69931918  0.98475333  0.87253289    -0.74300
Al313      Al  0.66500324  0.94367261  0.87109357     1.49000
C314        C  0.72383008  0.98665017  0.88515973     0.93000
O315        O  0.72930463  0.86962702  0.91791006    -0.80600
O316        O  0.68062547  0.80405856  0.89523294    -0.74100
Al317      Al  0.72364295  0.88995928  0.88486298     1.90100
O318        O  0.68259546  0.86450321  0.93321401    -0.73200
O319        O  0.63082995  0.84492914  0.87790113    -0.73000
O320        O  0.63321582  0.90497038  0.91759468    -0.78700
O321        O  0.62539210  0.91547543  0.86553114    -0.76900
O322        O  0.68263207  0.89680655  0.88671296    -1.13000
O323        O  0.67823724  0.92169184  0.83917732    -0.72200
C324        C  0.70653462  0.91455912  0.83406219     0.98500
C325        C  0.71143289  0.86205889  0.93574015     0.94900
Al326      Al  0.65894544  0.85806562  0.90426349     1.55600
O327        O  0.73328551  0.95126322  0.89617777    -0.76900
C328        C  0.61499182  0.87510783  0.86727350     0.99000
C329        C  0.70378240  0.79604442  0.88192195     0.93900
O330        O  0.72017825  0.82837996  0.87339870    -0.82200
O331        O  0.78189345  0.72024473  0.12616052    -0.81600
C332        C  0.86395157  0.61128377  0.07944221     0.97700
O333        O  0.85541644  0.65233753  0.07951388    -0.70800
O334        O  0.81085249  0.70874333  0.08270072    -0.74300
Al335      Al  0.84277063  0.69120480  0.10487240     1.49000
C336        C  0.78562755  0.69024998  0.07579240     0.93000
O337        O  0.76647784  0.59144520  0.12184256    -0.80600
O338        O  0.81448307  0.59259979  0.16030581    -0.74100
Al339      Al  0.77959820  0.65510378  0.12335096     1.90100
O340        O  0.80949448  0.55860492  0.11185953    -0.73200
O341        O  0.87020275  0.62352737  0.14709362    -0.73000
O342        O  0.86299452  0.58764049  0.09913658    -0.78700
O343        O  0.88009942  0.68203672  0.12315609    -0.76900
O344        O  0.82036311  0.64713310  0.11929577    -1.13000
O345        O  0.83140522  0.73695549  0.12841595    -0.72200
C346        C  0.80347717  0.74925744  0.12940311     0.98500
C347        C  0.78087038  0.55662898  0.11470312     0.94900
Al348      Al  0.83784086  0.59514529  0.12894750     1.55600
O349        O  0.77236116  0.65980103  0.08871657    -0.76900
C350        C  0.88807987  0.65514831  0.14015698     0.99000
C351        C  0.79493060  0.61966616  0.17010931     0.93900
O352        O  0.78326121  0.65193048  0.15775883    -0.82200
C353        C  0.73857283  0.74493724  0.02419448     0.16100
C354        C  0.71554836  0.76518125  0.00963405    -0.32900
C355        C  0.72511410  0.79726611  0.99187461     0.20500
C356        C  0.75612386  0.80847890  0.98862256     0.02700
C357        C  0.77901449  0.78846985  0.00319470    -0.22700
C358        C  0.76948492  0.75660087  0.02089418     0.11900
S359        S  0.73208939  0.70696102  0.04771564    -0.06300
C360        C  0.77139427  0.70796635  0.05325490    -0.09800
C361        C  0.78834715  0.73514718  0.03726228    -0.26400
S362        S  0.76335901  0.84512387  0.96485026    -0.03600
C363        C  0.72418135  0.84518767  0.95903337    -0.17000
C364        C  0.70657069  0.81893868  0.97514551    -0.15000
H365        H  0.69131170  0.75633701  0.01200874     0.20300
H366        H  0.80327108  0.79712747  0.00073807     0.16400
H367        H  0.81315187  0.74100083  0.03846599     0.18900
H368        H  0.68180237  0.81317092  0.97349025     0.12200
C369        C  0.97162486  0.63686022  0.16078359     0.16100
C370        C  0.00015824  0.61582670  0.16526683    -0.32900
C371        C  0.02709770  0.64013343  0.15879637     0.20500
C372        C  0.02578309  0.68424372  0.14929518     0.02700
C373        C  0.99724893  0.70568334  0.14531130    -0.22700
C374        C  0.97025001  0.68055254  0.15074282     0.11900
S375        S  0.93649988  0.61012499  0.16363753    -0.06300
C376        C  0.91980126  0.65749544  0.15022428    -0.09800
C377        C  0.94051628  0.69268310  0.14473754    -0.26400
S378        S  0.06071278  0.70588853  0.14004153    -0.03600
C379        C  0.07708355  0.65426070  0.14809496    -0.17000
C380        C  0.05652145  0.62290762  0.15836385    -0.15000
H381        H  0.00123178  0.58087977  0.17195391     0.20300
H382        H  0.99609775  0.73922499  0.13680365     0.16400
H383        H  0.93446525  0.72393149  0.13513086     0.18900
H384        H  0.06229644  0.58806170  0.16339589     0.12200
C385        C  0.47947378  0.82258124  0.86741630     0.16100
C386        C  0.50980233  0.80654887  0.87098995    -0.32900
C387        C  0.53443999  0.83413519  0.86245238     0.20500
C388        C  0.52897759  0.87491619  0.85008140     0.02700
C389        C  0.49872746  0.89016602  0.84586074    -0.22700
C390        C  0.47424185  0.86358689  0.85522210     0.11900
S391        S  0.44680862  0.79844353  0.87993135    -0.06300
C392        C  0.42611406  0.84483206  0.86924926    -0.09800
C393        C  0.44375532  0.87623253  0.85600552    -0.26400
S394        S  0.56149805  0.90660748  0.84409730    -0.03600
C395        C  0.58290987  0.86531698  0.85900320    -0.17000
C396        C  0.56548553  0.82808928  0.86731849    -0.15000
H397        H  0.51408079  0.77555093  0.88141086     0.20300
H398        H  0.49455161  0.92297316  0.83715190     0.16400
H399        H  0.43519016  0.90848224  0.84892748     0.18900
H400        H  0.57464259  0.80026687  0.87830469     0.12200
C401        C  0.22537091  0.71945440  0.01450271     0.16100
C402        C  0.22414466  0.74617910  0.99309991    -0.32900
C403        C  0.24981960  0.77430824  0.98797029     0.20500
C404        C  0.27559813  0.77571936  0.00336361     0.02700
C405        C  0.27680646  0.74903182  0.02475333    -0.22700
C406        C  0.25119300  0.72084095  0.02984700     0.11900
S407        S  0.19580556  0.68561477  0.02495729    -0.06300
C408        C  0.21842869  0.67366277  0.05039661    -0.09800
C409        C  0.24753207  0.69407333  0.05027734    -0.26400
S410        S  0.30525823  0.80940206  0.99297889    -0.03600
C411        C  0.28285657  0.82120534  0.96742380    -0.17000
C412        C  0.25367230  0.80092151  0.96747381    -0.15000
H413        H  0.20407261  0.74518333  0.98102423     0.20300
H414        H  0.29688177  0.75000511  0.03682505     0.16400
H415        H  0.26415803  0.69242902  0.06529240     0.18900
H416        H  0.23712932  0.80259318  0.95240184     0.12200
C417        C  0.38301847  0.01218135  0.98478640     0.16100
C418        C  0.38095738  0.04900842  0.00141680    -0.32900
C419        C  0.38321041  0.03935644  0.02678475     0.20500
C420        C  0.38760988  0.99507559  0.03530667     0.02700
C421        C  0.39064271  0.95842286  0.01862113    -0.22700
C422        C  0.38801926  0.96799185  0.99323162     0.11900
S423        S  0.37682196  0.01580420  0.95357801    -0.06300
C424        C  0.38100019  0.95707809  0.95172489    -0.09800
C425        C  0.38730791  0.93641586  0.97434353    -0.26400
S426        S  0.38601518  0.98999356  0.06685020    -0.03600
C427        C  0.37967073  0.04826108  0.06860955    -0.17000
C428        C  0.37914702  0.06995668  0.04574762    -0.15000
H429        H  0.37637689  0.08342631  0.99491822     0.20300
H430        H  0.39348627  0.92361741  0.02517519     0.16400
H431        H  0.38911898  0.89973090  0.97709746     0.18900
H432        H  0.37405645  0.10593492  0.04303807     0.12200
C433        C  0.26654996  0.90034015  0.13444985     0.16100
C434        C  0.26626620  0.85356543  0.14028101    -0.32900
C435        C  0.23904171  0.82863194  0.13552864     0.20500
C436        C  0.21311992  0.84949756  0.12550373     0.02700
C437        C  0.21329651  0.89662473  0.11989890    -0.22700
C438        C  0.24073110  0.92162165  0.12448743     0.11900
S439        S  0.29755340  0.93560710  0.13880286    -0.06300
C440        C  0.27580315  0.98015068  0.12722575    -0.09800
C441        C  0.24590674  0.96776119  0.12017820    -0.26400
S442        S  0.18320041  0.81240870  0.11941250    -0.03600
C443        C  0.20599695  0.76833733  0.13025315    -0.17000
C444        C  0.23500082  0.78222099  0.13857566    -0.15000
H445        H  0.28663433  0.83713962  0.14786644     0.20300
H446        H  0.19313705  0.91285873  0.11188144     0.16400
H447        H  0.22880547  0.99121084  0.11294576     0.18900
H448        H  0.25287789  0.75922879  0.14503644     0.12200
C449        C  0.25994656  0.33506393  0.14043579     0.16100
C450        C  0.23829755  0.36894616  0.14598378    -0.32900
C451        C  0.24119884  0.41144900  0.13403278     0.20500
C452        C  0.26478151  0.42040796  0.11746793     0.02700
C453        C  0.28669066  0.38652531  0.11205983    -0.22700
C454        C  0.28364188  0.34369792  0.12389759     0.11900
S455        S  0.25877475  0.28012827  0.15149513    -0.06300
C456        C  0.29052700  0.26821960  0.13360444    -0.09800
C457        C  0.30148945  0.30556200  0.12012658    -0.26400
S458        S  0.26381222  0.47459880  0.10496798    -0.03600
C459        C  0.23119490  0.48494020  0.12221233    -0.17000
C460        C  0.22195534  0.44804427  0.13673013    -0.15000
H461        H  0.21956910  0.36216163  0.15871489     0.20300
H462        H  0.30500178  0.39298356  0.09892331     0.16400
H463        H  0.32040204  0.30414649  0.10713884     0.18900
H464        H  0.20218004  0.44810244  0.14893183     0.12200
C465        C  0.21913718  0.14179512  0.87885291     0.16100
C466        C  0.21631994  0.09403005  0.88206872    -0.32900
C467        C  0.24270444  0.07023942  0.89018589     0.20500
C468        C  0.27043852  0.09321170  0.89488034     0.02700
C469        C  0.27333946  0.14045251  0.89130522    -0.22700
C470        C  0.24723358  0.16395401  0.88305122     0.11900
S471        S  0.18949829  0.17820076  0.87160987    -0.06300
C472        C  0.21551770  0.22336823  0.87425058    -0.09800
C473        C  0.24549015  0.21022432  0.87984551    -0.26400
S474        S  0.30026968  0.05900237  0.90325733    -0.03600
C475        C  0.27561485  0.01265039  0.89994420    -0.17000
C476        C  0.24549296  0.02356124  0.89324527    -0.15000
H477        H  0.19454067  0.07631322  0.87861341     0.20300
H478        H  0.29511659  0.15820938  0.89481505     0.16400
H479        H  0.26454804  0.23374068  0.88368001     0.18900
H480        H  0.22752045  0.99864199  0.88879599     0.12200
C481        C  0.27503866  0.57465605  0.89822476     0.16100
C482        C  0.29826269  0.60860148  0.90048147    -0.32900
C483        C  0.29084301  0.65346136  0.89304905     0.20500
C484        C  0.26185107  0.66372210  0.88349012     0.02700
C485        C  0.23870884  0.63013529  0.88153196    -0.22700
C486        C  0.24592337  0.58579065  0.88929635     0.11900
S487        S  0.27913449  0.51755212  0.90511731    -0.06300
C488        C  0.24107133  0.50935396  0.89611843    -0.09800
C489        C  0.22636620  0.54890433  0.88843837    -0.26400
S490        S  0.25677924  0.71983905  0.87605194    -0.03600
C491        C  0.29381311  0.73044965  0.88664278    -0.17000
C492        C  0.30940475  0.69187144  0.89493229    -0.15000
H493        H  0.32096344  0.60050633  0.90776008     0.20300
H494        H  0.21592250  0.63829745  0.87441832     0.16400
H495        H  0.20281851  0.55029346  0.88145892     0.18900
H496        H  0.33242135  0.69230042  0.90298978     0.12200
C497        C  0.13141086  0.44590504  0.99636385     0.16100
C498        C  0.13090237  0.44783348  0.02223874    -0.32900
C499        C  0.12638443  0.49063710  0.03341210     0.20500
C500        C  0.12177433  0.52971905  0.01936178     0.02700
C501        C  0.12223377  0.52780114  0.99336126    -0.22700
C502        C  0.12753269  0.48497429  0.98214804     0.11900
S503        S  0.13872326  0.39761196  0.97978138    -0.06300
C504        C  0.13728170  0.42992784  0.95310620    -0.09800
C505        C  0.13094172  0.47608990  0.95720414    -0.26400
S506        S  0.11831449  0.57863387  0.03654977    -0.03600
C507        C  0.12402869  0.54634527  0.06294642    -0.17000
C508        C  0.12776637  0.49988856  0.05834249    -0.15000
H509        H  0.13485823  0.41741633  0.03321166     0.20300
H510        H  0.11955282  0.55856504  0.98240516     0.16400
H511        H  0.12996602  0.50192251  0.94289082     0.18900
H512        H  0.13283637  0.47458191  0.07236118     0.12200
C513        C  0.26885642  0.25704913  0.98255592     0.16100
C514        C  0.29116829  0.23387747  0.99652239    -0.32900
C515        C  0.28073073  0.20705628  0.01634318     0.20500
C516        C  0.24950249  0.20287233  0.02184461     0.02700
C517        C  0.22719860  0.22521099  0.00758770    -0.22700
C518        C  0.23765735  0.25254172  0.98806090     0.11900
S519        S  0.27652036  0.29219713  0.95800830    -0.06300
C520        C  0.23723533  0.30048883  0.95521581    -0.09800
C521        C  0.21948885  0.27729333  0.97245249    -0.26400
S522        S  0.24177020  0.17279229  0.04811138    -0.03600
C523        C  0.28109298  0.16657166  0.05204330    -0.17000
C524        C  0.29893824  0.18559760  0.03340444    -0.15000
H525        H  0.31563213  0.23753537  0.99253278     0.20300
H526        H  0.20278980  0.22253086  0.01197027     0.16400
H527        H  0.19439818  0.27750155  0.97304685     0.18900
H528        H  0.32403574  0.18691811  0.03339609     0.12200
C529        C  0.75961063  0.43077939  0.11176654     0.16100
C530        C  0.76245301  0.38337379  0.11258101    -0.32900
C531        C  0.73755578  0.35814787  0.12172526     0.20500
C532        C  0.71025990  0.37861876  0.12896600     0.02700
C533        C  0.70753464  0.42673999  0.12856253    -0.22700
C534        C  0.73316595  0.45242213  0.12006826     0.11900
S535        S  0.78859558  0.46620889  0.10278038    -0.06300
C536        C  0.76600547  0.51154057  0.11153697    -0.09800
C537        C  0.73668421  0.49944976  0.11993588    -0.26400
S538        S  0.68178505  0.33996784  0.13694303    -0.03600
C539        C  0.70772707  0.29663241  0.13104902    -0.17000
C540        C  0.73651852  0.31174957  0.12348177    -0.15000
H541        H  0.78346535  0.36679303  0.10660601     0.20300
H542        H  0.68661495  0.44331164  0.13469648     0.16400
H543        H  0.71992397  0.52329838  0.12712152     0.18900
H544        H  0.75517299  0.28967411  0.11769431     0.12200
C545        C  0.79130165  0.88008410  0.12847408     0.16100
C546        C  0.79296400  0.92838151  0.12933288    -0.32900
C547        C  0.76777270  0.95297370  0.11947446     0.20500
C548        C  0.74261446  0.93030098  0.10883455     0.02700
C549        C  0.74097337  0.88256163  0.10805468    -0.22700
C550        C  0.76549786  0.85827290  0.11841474     0.11900
S551        S  0.81920451  0.84284655  0.13878646    -0.06300
C552        C  0.79501615  0.79805293  0.13005938    -0.09800
C553        C  0.76730038  0.81178267  0.11959850    -0.26400
S554        S  0.71355026  0.96479815  0.09914093    -0.03600
C555        C  0.73466064  0.01085687  0.11017819    -0.17000
C556        C  0.76341794  0.99973197  0.12012792    -0.15000
H557        H  0.81268269  0.94591680  0.13761804     0.20300
H558        H  0.72098305  0.86497925  0.10017701     0.16400
H559        H  0.74974809  0.78871028  0.11211035     0.18900
H560        H  0.77915590  0.02398649  0.12890839     0.12200
C561        C  0.62909294  0.07430059  0.00747320     0.16100
C562        C  0.63161931  0.07152618  0.98173204    -0.32900
C563        C  0.62752464  0.02840263  0.97066521     0.20500
C564        C  0.62017422  0.98998291  0.98460280     0.02700
C565        C  0.61736291  0.99283402  0.01041415    -0.22700
C566        C  0.62249960  0.03581616  0.02160342     0.11900
S567        S  0.63651001  0.12260122  0.02419298    -0.06300
C568        C  0.63162756  0.09085142  0.05079759    -0.09800
C569        C  0.62387206  0.04506991  0.04660074    -0.26400
S570        S  0.61819921  0.94035607  0.96789320    -0.03600
C571        C  0.62837162  0.97135464  0.94195344    -0.17000
C572        C  0.63225311  0.01800472  0.94620875    -0.15000
H573        H  0.63788178  0.10138378  0.97091413     0.20300
H574        H  0.61272435  0.96251082  0.02136171     0.16400
H575        H  0.62102572  0.01956364  0.06093384     0.18900
H576        H  0.63983556  0.04256114  0.93248590     0.12200
C577        C  0.52927289  0.19321669  0.14504557     0.16100
C578        C  0.49938139  0.21049603  0.14148064    -0.32900
C579        C  0.47438188  0.18410356  0.15007915     0.20500
C580        C  0.47911185  0.14334609  0.16268870     0.02700
C581        C  0.50909095  0.12681596  0.16698312    -0.22700
C582        C  0.53401919  0.15217408  0.15738157     0.11900
S583        S  0.56173754  0.21598998  0.13204889    -0.06300
C584        C  0.58193021  0.16915597  0.14267496    -0.09800
C585        C  0.56436526  0.13838762  0.15635125    -0.26400
S586        S  0.44602511  0.11306532  0.16849470    -0.03600
C587        C  0.42559734  0.15473110  0.15290570    -0.17000
C588        C  0.44362360  0.19121887  0.14472804    -0.15000
H589        H  0.49566798  0.24138790  0.13084704     0.20300
H590        H  0.51265662  0.09394439  0.17578057     0.16400
H591        H  0.57272522  0.10601127  0.16339819     0.18900
H592        H  0.43516927  0.21895334  0.13333680     0.12200
C593        C  0.87631181  0.57687782  0.01155511     0.16100
C594        C  0.87423962  0.57488974  0.98568422    -0.32900
C595        C  0.87901813  0.53239615  0.97418688     0.20500
C596        C  0.88662063  0.49393769  0.98788876     0.02700
C597        C  0.88887919  0.49599484  0.01382488    -0.22700
C598        C  0.88301039  0.53823668  0.02542297     0.11900
S599        S  0.86835442  0.62422009  0.02871798    -0.06300
C600        C  0.87303015  0.59183423  0.05516963    -0.09800
C601        C  0.88112057  0.54651386  0.05054847    -0.26400
S602        S  0.88974171  0.44509642  0.97064504    -0.03600
C603        C  0.87966332  0.47626176  0.94472544    -0.17000
C604        C  0.87495615  0.52254398  0.94945068    -0.15000
H605        H  0.86788837  0.60483538  0.97505171     0.20300
H606        H  0.89373393  0.46553482  0.02453269     0.16400
H607        H  0.88401517  0.52060790  0.06465043     0.18900
H608        H  0.86737586  0.54716342  0.93579273     0.12200
C609        C  0.73567623  0.59456714  0.89123039     0.16100
C610        C  0.71560039  0.62967875  0.89852155    -0.32900
C611        C  0.71822834  0.67231196  0.88643678     0.20500
C612        C  0.73948988  0.67938713  0.86773172     0.02700
C613        C  0.75899846  0.64420904  0.86017388    -0.22700
C614        C  0.75680058  0.60214182  0.87251096     0.11900
S615        S  0.73813377  0.54110495  0.90444616    -0.06300
C616        C  0.76835303  0.52975495  0.88478968    -0.09800
C617        C  0.77535218  0.56529807  0.86872338    -0.26400
S618        S  0.74112893  0.73419029  0.85671300    -0.03600
C619        C  0.71288151  0.74819051  0.87752958    -0.17000
C620        C  0.70259350  0.71173512  0.89196751    -0.15000
H621        H  0.69939480  0.62450993  0.91343827     0.20300
H622        H  0.77599953  0.64990010  0.84587735     0.16400
H623        H  0.79360315  0.56454937  0.85512322     0.18900
H624        H  0.68580805  0.71453652  0.90662819     0.12200
C625        C  0.76931185  0.18161842  0.86806654     0.16100
C626        C  0.74768274  0.14708055  0.86240350    -0.32900
C627        C  0.75124961  0.10437188  0.87384983     0.20500
C628        C  0.77558826  0.09564774  0.88988670     0.02700
C629        C  0.79760673  0.13023944  0.89535585    -0.22700
C630        C  0.79369117  0.17352068  0.88420522     0.11900
S631        S  0.76696285  0.23682745  0.85783919    -0.06300
C632        C  0.79896739  0.24989649  0.87572253    -0.09800
C633        C  0.81102299  0.21264965  0.88851785    -0.26400
S634        S  0.77490017  0.04114102  0.90207040    -0.03600
C635        C  0.74121818  0.03069477  0.88556084    -0.17000
C636        C  0.73164878  0.06757910  0.87134315    -0.15000
H637        H  0.72832972  0.15363025  0.85016267     0.20300
H638        H  0.81640647  0.12410724  0.90818383     0.16400
H639        H  0.83024253  0.21469817  0.90140484     0.18900
H640        H  0.71120751  0.06755141  0.85966033     0.12200
C641        C  0.98200040  0.38499932  0.84894625     0.16100
C642        C  0.01235510  0.39993319  0.84402147    -0.32900
C643        C  0.03676609  0.37140385  0.85130216     0.20500
C644        C  0.03111742  0.32909195  0.86215488     0.02700
C645        C  0.00071805  0.31344652  0.86627280    -0.22700
C646        C  0.97634600  0.34274489  0.85986521     0.11900
S647        S  0.94985532  0.41807438  0.84558574    -0.06300
C648        C  0.92857604  0.37511828  0.85962004    -0.09800
C649        C  0.94562903  0.33658394  0.86571008    -0.26400
S650        S  0.06361757  0.30244368  0.87276758    -0.03600
C651        C  0.08510006  0.34921378  0.86304082    -0.17000
C652        C  0.06775495  0.38283202  0.85141439    -0.15000
H653        H  0.01681321  0.43369572  0.83642858     0.20300
H654        H  0.99634295  0.28126072  0.87564764     0.16400
H655        H  0.93657865  0.30729396  0.87572060     0.18900
H656        H  0.07694113  0.41562140  0.84535216     0.12200
C657        C  0.75194782  0.30720353  0.98585632     0.16100
C658        C  0.72880754  0.28517984  0.99936969    -0.32900
C659        C  0.73813486  0.25734604  0.01896682     0.20500
C660        C  0.76908227  0.25162376  0.02512151     0.02700
C661        C  0.79233156  0.27407438  0.01168012    -0.22700
C662        C  0.78297566  0.30190604  0.99192494     0.11900
S663        S  0.74526329  0.33929735  0.96020850    -0.06300
C664        C  0.78473459  0.34530864  0.95734363    -0.09800
C665        C  0.80196686  0.32435174  0.97575333    -0.26400
S666        S  0.77513751  0.21718564  0.05022329    -0.03600
C667        C  0.73554185  0.21130733  0.05240495    -0.17000
C668        C  0.71889507  0.23418417  0.03443052    -0.15000
H669        H  0.70455433  0.28910937  0.99462765     0.20300
H670        H  0.81658868  0.26978144  0.01627116     0.16400
H671        H  0.82702899  0.32283640  0.97626144     0.18900
H672        H  0.69383035  0.23548342  0.03343443     0.12200
C673        C  0.76676637  0.58770188  0.23589728     0.16100
C674        C  0.76006179  0.56737834  0.25883915    -0.32900
C675        C  0.73667635  0.58716174  0.27333450     0.20500
C676        C  0.72044067  0.62515718  0.26529999     0.02700
C677        C  0.72736706  0.64569372  0.24254071    -0.22700
C678        C  0.75088179  0.62620531  0.22818659     0.11900
S679        S  0.79364513  0.56861020  0.21501077    -0.06300
C680        C  0.78345053  0.61323368  0.19574612    -0.09800
C681        C  0.76049998  0.64109678  0.20546737    -0.26400
S682        S  0.69350384  0.64467798  0.28587941    -0.03600
C683        C  0.70448450  0.60168003  0.30577454    -0.17000
C684        C  0.72776051  0.57383243  0.29659764    -0.15000
H685        H  0.77257136  0.53757235  0.26516060     0.20300
H686        H  0.71505567  0.67576156  0.23631961     0.16400
H687        H  0.75058622  0.67024796  0.19601597     0.18900
H688        H  0.73847329  0.54634685  0.30690477     0.12200
C689        C  0.78453572  0.90904718  0.74084375     0.16100
C690        C  0.78345571  0.91869531  0.76623376    -0.32900
C691        C  0.75458705  0.91495200  0.77809649     0.20500
C692        C  0.72784269  0.90282385  0.76529578     0.02700
C693        C  0.72894949  0.89309160  0.73997207    -0.22700
C694        C  0.75783610  0.89625318  0.72819477     0.11900
S695        S  0.81709184  0.91181743  0.72271597    -0.06300
C696        C  0.79445126  0.89524997  0.69785096    -0.09800
C697        C  0.76341051  0.88812084  0.70374970    -0.26400
S698        S  0.69517850  0.89981987  0.78317985    -0.03600
C699        C  0.71788674  0.91400347  0.80833890    -0.17000
C700        C  0.74899824  0.92128098  0.80273982    -0.15000
H701        H  0.80423246  0.92841724  0.77635228     0.20300
H702        H  0.70819650  0.88317218  0.72987810     0.16400
H703        H  0.74550910  0.87829937  0.69061677     0.18900
H704        H  0.76679388  0.93003073  0.81617713     0.12200
C705        C  0.76342418  0.71284097  0.48331011     0.16100
C706        C  0.78603395  0.73775894  0.49649812    -0.32900
C707        C  0.77601234  0.76650121  0.51559895     0.20500
C708        C  0.74493137  0.77040051  0.52137650     0.02700
C709        C  0.72236795  0.74530026  0.50829248    -0.22700
C710        C  0.73239277  0.71637815  0.48931237     0.11900
S711        S  0.77037612  0.67853972  0.45832552    -0.06300
C712        C  0.73101028  0.66880292  0.45602875    -0.09800
C713        C  0.71382735  0.69066840  0.47403295    -0.26400
S714        S  0.73774685  0.80527382  0.54604753    -0.03600
C715        C  0.77712503  0.81411061  0.54893440    -0.17000
C716        C  0.79451433  0.79180653  0.53117124    -0.15000
H717        H  0.81036259  0.73500586  0.49202627     0.20300
H718        H  0.69804017  0.74804979  0.51276204     0.16400
H719        H  0.68875375  0.69044398  0.47483762     0.18900
H720        H  0.81960060  0.79169437  0.53065302     0.12200
C721        C  0.27710940  0.60930556  0.26739093     0.16100
C722        C  0.27567589  0.61207830  0.24157934    -0.32900
C723        C  0.24664982  0.60546018  0.23007277     0.20500
C724        C  0.22014616  0.59590093  0.24345130     0.02700
C725        C  0.22157745  0.59309282  0.26928495    -0.22700
C726        C  0.25054015  0.60038803  0.28083010     0.11900
S727        S  0.30992591  0.61745707  0.28508410    -0.06300
C728        C  0.28742183  0.60983109  0.31089510    -0.09800
C729        C  0.25633565  0.60079042  0.30569238    -0.26400
S730        S  0.18720941  0.58911180  0.22569343    -0.03600
C731        C  0.20941529  0.59976932  0.19998255    -0.17000
C732        C  0.24062115  0.60775283  0.20531110    -0.15000
H733        H  0.29623664  0.61959110  0.23090944     0.20300
H734        H  0.20095493  0.58609254  0.27996759     0.16400
H735        H  0.23870527  0.59522214  0.31952691     0.18900
H736        H  0.25821079  0.61495871  0.19165014     0.12200
C737        C  0.52725968  0.68776308  0.36869768     0.16100
C738        C  0.49840274  0.70702499  0.37418518    -0.32900
C739        C  0.47168076  0.68405170  0.36551386     0.20500
C740        C  0.47376409  0.64458057  0.35134135     0.02700
C741        C  0.50253977  0.62601650  0.34538878    -0.22700
C742        C  0.52910796  0.64799616  0.35476229     0.11900
S743        S  0.56206229  0.70637445  0.38041390    -0.06300
C744        C  0.57902400  0.65925081  0.36703231    -0.09800
C745        C  0.55870361  0.63165912  0.35362209    -0.26400
S746        S  0.43916202  0.61834300  0.34517755    -0.03600
C747        C  0.42147517  0.66014354  0.36240319    -0.17000
C748        C  0.44155165  0.69358658  0.37165692    -0.15000
H749        H  0.49679625  0.73694740  0.38591718     0.20300
H750        H  0.50406414  0.59416834  0.33520807     0.16400
H751        H  0.56488352  0.59964668  0.34488158     0.18900
H752        H  0.43485743  0.72078269  0.38407660     0.12200
C753        C  0.25263549  0.90398467  0.78461641     0.16100
C754        C  0.22815261  0.90831100  0.76756702    -0.32900
C755        C  0.23479245  0.90258153  0.74248672     0.18900
C756        C  0.26459883  0.89258413  0.73492800     0.02700
C757        C  0.28913510  0.88829818  0.75199230    -0.22700
C758        C  0.28253918  0.89451300  0.77708416     0.11900
S759        S  0.24886774  0.90937695  0.81563994    -0.06300
C760        C  0.28807309  0.89926967  0.81885640    -0.09800
C761        C  0.30319003  0.89205125  0.79668567    -0.26400
S762        S  0.26812893  0.88720047  0.70385205    -0.03600
C763        C  0.22907122  0.89902489  0.70070393    -0.17000
C764        C  0.21419313  0.90631036  0.72294315    -0.15000
H765        H  0.20493237  0.91597302  0.77362722     0.20300
H766        H  0.31237250  0.88069874  0.74592851     0.16400
H767        H  0.32759737  0.88454728  0.79502730     0.18900
H768        H  0.18990492  0.91443981  0.72471917     0.12200
C769        C  0.03375594  0.87243043  0.65828618     0.16100
C770        C  0.00384621  0.88881932  0.66270970    -0.32900
C771        C  0.97863796  0.86368517  0.65304918     0.20500
C772        C  0.98294092  0.82333396  0.64003478     0.02700
C773        C  0.01291716  0.80660107  0.63583815    -0.22700
C774        C  0.03822795  0.83233012  0.64507649     0.11900
S775        S  0.06715382  0.90118928  0.66583955    -0.06300
C776        C  0.08765575  0.85937915  0.65068937    -0.09800
C777        C  0.06917736  0.82437093  0.64087537    -0.26400
S778        S  0.94938553  0.79972591  0.62842868    -0.03600
C779        C  0.92938526  0.84516017  0.64083575    -0.17000
C780        C  0.94805805  0.87634111  0.65357980    -0.15000
H781        H  0.00043515  0.92089270  0.67235399     0.20300
H782        H  0.01639726  0.77590765  0.62499133     0.16400
H783        H  0.07770289  0.79663761  0.62957943     0.18900
H784        H  0.93989624  0.90784419  0.66177090     0.12200
C785        C  0.22927010  0.79325415  0.51238143     0.16100
C786        C  0.22608584  0.76982070  0.48994201    -0.32900
C787        C  0.25036371  0.74120014  0.48289364     0.20500
C788        C  0.27660852  0.73620359  0.49751257     0.02700
C789        C  0.27988428  0.75986893  0.51980392    -0.22700
C790        C  0.25571335  0.78856153  0.52679250     0.11900
S791        S  0.20140637  0.82641625  0.52528775    -0.06300
C792        C  0.22565045  0.83369734  0.55038668    -0.09800
C793        C  0.25401893  0.81241354  0.54839876    -0.26400
S794        S  0.30416741  0.70188166  0.48528152    -0.03600
C795        C  0.28042500  0.69487658  0.45989499    -0.17000
C796        C  0.25227675  0.71709150  0.46130941    -0.15000
H797        H  0.20551978  0.77345654  0.47858404     0.20300
H798        H  0.30038974  0.75606017  0.53122016     0.16400
H799        H  0.27140264  0.81121317  0.56288840     0.18900
H800        H  0.23514472  0.71820444  0.44663602     0.12200
C801        C  0.22554916  0.10601718  0.27087016     0.16100
C802        C  0.22628908  0.10236504  0.24507876    -0.32900
C803        C  0.25537941  0.10409992  0.23353777     0.20500
C804        C  0.28268000  0.10875462  0.24692454     0.02700
C805        C  0.28193429  0.11266204  0.27271147    -0.22700
C806        C  0.25281139  0.11141347  0.28422779     0.11900
S807        S  0.19265968  0.10459282  0.28859109    -0.06300
C808        C  0.21590789  0.11207893  0.31425870    -0.09800
C809        C  0.24739345  0.11509433  0.30897517    -0.26400
S810        S  0.31556453  0.10967503  0.22919841    -0.03600
C811        C  0.29217068  0.10448480  0.20344156    -0.17000
C812        C  0.26069550  0.10182485  0.20872095    -0.15000
H813        H  0.20510083  0.09848959  0.23442919     0.20300
H814        H  0.30312084  0.11667580  0.28335905     0.16400
H815        H  0.26558872  0.11945199  0.32267000     0.18900
H816        H  0.24246486  0.09842462  0.19499009     0.12200
C817        C  0.13436485  0.05036465  0.49686561     0.16100
C818        C  0.13296633  0.05129793  0.52283182    -0.32900
C819        C  0.13671558  0.00963391  0.53556376     0.20500
C820        C  0.14098505  0.96899713  0.52276886     0.02700
C821        C  0.14309209  0.96825712  0.49694943    -0.22700
C822        C  0.13990404  0.00986895  0.48428624     0.11900
S823        S  0.13084831  0.09702388  0.47805465    -0.06300
C824        C  0.13767620  0.06191283  0.45297002    -0.09800
C825        C  0.14221657  0.01628905  0.45916199    -0.26400
S826        S  0.14415156  0.92190490  0.54105424    -0.03600
C827        C  0.14070624  0.95691571  0.56653068    -0.17000
C828        C  0.13711611  0.00310541  0.56086161    -0.15000
H829        H  0.12935934  0.08314063  0.53265095     0.20300
H830        H  0.14723186  0.93653970  0.48716124     0.16400
H831        H  0.14756228  0.98947537  0.44608838     0.18900
H832        H  0.13513572  0.03023974  0.57438606     0.12200
C833        C  0.27484314  0.86051677  0.36868469     0.16100
C834        C  0.25843090  0.89870210  0.36035431    -0.32900
C835        C  0.25953698  0.93849429  0.37492719     0.20500
C836        C  0.27666373  0.94100595  0.39659536     0.02700
C837        C  0.29380795  0.90309040  0.40460200    -0.22700
C838        C  0.29227162  0.86288110  0.39022172     0.11900
S839        S  0.27344198  0.80730996  0.35525528    -0.06300
C840        C  0.29676838  0.78800217  0.37884347    -0.09800
C841        C  0.30523632  0.82151717  0.39592509    -0.26400
S842        S  0.27253629  0.99163256  0.41253380    -0.03600
C843        C  0.24695690  0.00875798  0.38993788    -0.17000
C844        C  0.24283471  0.97722237  0.37095670    -0.15000
H845        H  0.24428160  0.89686163  0.34381215     0.20300
H846        H  0.30673457  0.90421609  0.42176128     0.16400
H847        H  0.31876282  0.81528168  0.41244942     0.18900
H848        H  0.22720114  0.98165134  0.35543954     0.12200
C849        C  0.22771747  0.44065410  0.39536332     0.16100
C850        C  0.20778504  0.40443507  0.40228601    -0.32900
C851        C  0.21101479  0.36199126  0.39008863     0.20500
C852        C  0.23285038  0.35609492  0.37175504     0.02700
C853        C  0.25231750  0.39219117  0.36468115    -0.22700
C854        C  0.24934888  0.43408921  0.37699145     0.11900
S855        S  0.22924820  0.49456219  0.40842819    -0.06300
C856        C  0.25966403  0.50742161  0.38906867    -0.09800
C857        C  0.26743337  0.47189665  0.37331700    -0.26400
S858        S  0.23519095  0.30158261  0.36051318    -0.03600
C859        C  0.20642794  0.28594011  0.38070526    -0.17000
C860        C  0.19547549  0.32173038  0.39513203    -0.15000
H861        H  0.19111969  0.40873537  0.41690579     0.20300
H862        H  0.26974545  0.38743069  0.35066234     0.16400
H863        H  0.28592659  0.47336177  0.35991798     0.18900
H864        H  0.17844366  0.31786660  0.40956744     0.12200
C865        C  0.23300849  0.40855653  0.76898029     0.16100
C866        C  0.23326343  0.41051136  0.74308254    -0.32900
C867        C  0.26214195  0.40928311  0.73115626     0.20500
C868        C  0.28970218  0.40693711  0.74429485     0.02700
C869        C  0.28943838  0.40466300  0.77020282    -0.22700
C870        C  0.26051491  0.40512411  0.78212430     0.11900
S871        S  0.20041109  0.40898551  0.78708138    -0.06300
C872        C  0.22402443  0.40311174  0.81263765    -0.09800
C873        C  0.25546638  0.40175023  0.80704581    -0.26400
S874        S  0.32225553  0.40624921  0.72610349    -0.03600
C875        C  0.29842213  0.40828601  0.70047374    -0.17000
C876        C  0.26700700  0.40980860  0.70618008    -0.15000
H877        H  0.21183866  0.41250708  0.73263372     0.20300
H878        H  0.31084391  0.40219074  0.78063450     0.16400
H879        H  0.27380913  0.39826864  0.82063180     0.18900
H880        H  0.24847861  0.41114159  0.69262349     0.12200
C881        C  0.27532657  0.08691615  0.61416760     0.16100
C882        C  0.29213746  0.12434046  0.60482544    -0.32900
C883        C  0.29313488  0.16463356  0.61902864     0.20500
C884        C  0.27844704  0.16756313  0.64163093     0.02700
C885        C  0.26220409  0.12991885  0.65118127    -0.22700
C886        C  0.26075602  0.08998446  0.63679992     0.11900
S887        S  0.26938212  0.03574291  0.59917841    -0.06300
C888        C  0.24665805  0.01894800  0.62355916    -0.09800
C889        C  0.24436824  0.05116468  0.64225784    -0.26400
S890        S  0.28007820  0.22067197  0.65497784    -0.03600
C891        C  0.30068491  0.23908889  0.62977775    -0.17000
C892        C  0.30632750  0.20549046  0.61230646    -0.15000
H893        H  0.30309158  0.12265305  0.58697314     0.20300
H894        H  0.25027388  0.13216893  0.66861472     0.16400
H895        H  0.23087661  0.04667941  0.65886103     0.18900
H896        H  0.31803365  0.21130489  0.59497799     0.12200
C897        C  0.23939358  0.58378581  0.62132496     0.16100
C898        C  0.21626314  0.61704730  0.61865352    -0.32900
C899        C  0.22314574  0.66179634  0.62698922     0.20500
C900        C  0.25146065  0.67253056  0.63790623     0.02700
C901        C  0.27428830  0.63943171  0.64074354    -0.22700
C902        C  0.26767119  0.59529158  0.63200326     0.11900
S903        S  0.23661334  0.52756407  0.61194866    -0.06300
C904        C  0.27406111  0.52029446  0.62240225    -0.09800
C905        C  0.28749009  0.55937661  0.63257046    -0.26400
S906        S  0.25646777  0.72877066  0.64543149    -0.03600
C907        C  0.22024978  0.73871504  0.63326905    -0.17000
C908        C  0.20494112  0.69985921  0.62438696    -0.15000
H909        H  0.19425525  0.60874437  0.60998249     0.20300
H910        H  0.29660869  0.64801346  0.64884377     0.16400
H911        H  0.31066689  0.56137096  0.64031908     0.18900
H912        H  0.18254530  0.69991392  0.61528294     0.12200
C913        C  0.37712818  0.55330282  0.49279047     0.16100
C914        C  0.37835734  0.55384916  0.51871835    -0.32900
C915        C  0.37980401  0.51159438  0.53108615     0.20500
C916        C  0.38099909  0.47072818  0.51804326     0.02700
C917        C  0.37941534  0.47013625  0.49207662    -0.22700
C918        C  0.37694644  0.51238349  0.47972439     0.11900
S919        S  0.37399642  0.60088129  0.47474074    -0.06300
C920        C  0.37128280  0.56566521  0.44916245    -0.09800
C921        C  0.37316466  0.51915398  0.45461555    -0.26400
S922        S  0.38229253  0.42317194  0.53635702    -0.03600
C923        C  0.37999571  0.45831819  0.56199375    -0.17000
C924        C  0.37888569  0.50475509  0.55630594    -0.15000
H925        H  0.37745395  0.58584860  0.52882137     0.20300
H926        H  0.37932743  0.43805186  0.48199675     0.16400
H927        H  0.37132929  0.49189999  0.44109286     0.18900
H928        H  0.37645813  0.53187169  0.56977954     0.12200
C929        C  0.22854097  0.24135847  0.49907121     0.16100
C930        C  0.22667029  0.26866806  0.52020565    -0.32900
C931        C  0.25300171  0.29431027  0.52689435     0.20500
C932        C  0.27995405  0.29295088  0.51314654     0.02700
C933        C  0.28183777  0.26560781  0.49203987    -0.22700
C934        C  0.25556867  0.23980098  0.48542816     0.11900
S935        S  0.19855759  0.21009994  0.48699861    -0.06300
C936        C  0.22259449  0.19541959  0.46310034    -0.09800
C937        C  0.25245067  0.21287652  0.46494124    -0.26400
S938        S  0.31001733  0.32392362  0.52523599    -0.03600
C939        C  0.28628874  0.33774565  0.54948315    -0.17000
C940        C  0.25636578  0.32052625  0.54764507    -0.15000
H941        H  0.20565864  0.26984970  0.53095885     0.20300
H942        H  0.30288786  0.26428815  0.48133828     0.16400
H943        H  0.27017361  0.20900855  0.45107964     0.18900
H944        H  0.23883789  0.32383056  0.56170548     0.12200
C945        C  0.78154702  0.10923704  0.26226787     0.16100
C946        C  0.78097512  0.11744408  0.23677787    -0.32900
C947        C  0.75254358  0.11187613  0.22423451     0.20500
C948        C  0.72589042  0.09769569  0.23624938     0.02700
C949        C  0.72641916  0.08975757  0.26178190    -0.22700
C950        C  0.75470905  0.09634898  0.27443202     0.11900
S951        S  0.81347882  0.11538512  0.28114042    -0.06300
C952        C  0.79017259  0.10178076  0.30578183    -0.09800
C953        C  0.75951688  0.09229908  0.29932302    -0.26400
S954        S  0.69382391  0.09261380  0.21738855    -0.03600
C955        C  0.71643722  0.11124057  0.19326179    -0.17000
C956        C  0.74717845  0.11993984  0.19972845    -0.15000
H957        H  0.80169696  0.12840148  0.22717256     0.20300
H958        H  0.70558491  0.07953808  0.27145312     0.16400
H959        H  0.74148342  0.08336863  0.31232155     0.18900
H960        H  0.76481886  0.13172115  0.18702142     0.12200
C961        C  0.74145671  0.40301203  0.36723004     0.16100
C962        C  0.74281211  0.35733133  0.35941210    -0.32900
C963        C  0.76777168  0.33118665  0.36764184     0.20500
C964        C  0.79085192  0.35010595  0.38251714     0.02700
C965        C  0.78980761  0.39628683  0.38997343    -0.22700
C966        C  0.76430737  0.42224041  0.38223011     0.11900
S967        S  0.71180003  0.43857888  0.36050158    -0.06300
C968        C  0.72988383  0.48023960  0.37823643    -0.09800
C969        C  0.75787735  0.46699106  0.38858559    -0.26400
S970        S  0.81768400  0.31150484  0.39227161    -0.03600
C971        C  0.79709090  0.26928902  0.37669662    -0.17000
C972        C  0.77136073  0.28497058  0.36402726    -0.15000
H973        H  0.72451271  0.34231618  0.34813821     0.20300
H974        H  0.80745621  0.41079043  0.40204624     0.16400
H975        H  0.77243386  0.48853720  0.40021778     0.18900
H976        H  0.75501687  0.26326166  0.35407222     0.12200
C977        C  0.72979773  0.92022567  0.38746694     0.16100
C978        C  0.70919592  0.88456717  0.39378949    -0.32900
C979        C  0.71449398  0.84090312  0.38362790     0.20500
C980        C  0.73878804  0.83328356  0.36758638     0.02700
C981        C  0.75898972  0.86886858  0.36105297    -0.22700
C982        C  0.75406068  0.91204607  0.37151957     0.11900
S983        S  0.72899952  0.97537175  0.39869817    -0.06300
C984        C  0.76196640  0.98676191  0.38190672    -0.09800
C985        C  0.77235955  0.94980574  0.36826358    -0.26400
S986        S  0.74276455  0.77764250  0.35847787    -0.03600
C987        C  0.71163403  0.76398877  0.37676786    -0.17000
C988        C  0.69863596  0.80113599  0.38883519    -0.15000
H989        H  0.69046227  0.89023622  0.40657752     0.20300
H990        H  0.77834763  0.86284240  0.34890588     0.16400
H991        H  0.79273146  0.95027815  0.35669983     0.18900
H992        H  0.67955179  0.79880329  0.40165054     0.12200
C993        C  0.87245046  0.98275810  0.47586678     0.16100
C994        C  0.87265846  0.94591419  0.49255960    -0.32900
C995        C  0.87454556  0.95614874  0.51788802     0.20500
C996        C  0.87608395  0.00102926  0.52630236     0.02700
C997        C  0.87651592  0.03782364  0.50959574    -0.22700
C998        C  0.87469316  0.02758959  0.48427455     0.11900
S999        S  0.86763280  0.97796632  0.44452901    -0.06300
C1000       C  0.86912756  0.03702096  0.44266689    -0.09800
C1001       C  0.87316099  0.05871314  0.46533804    -0.26400
S1002       S  0.87530582  0.00620779  0.55779627    -0.03600
C1003       C  0.87333168  0.94719192  0.55972321    -0.17000
C1004       C  0.87332674  0.92520336  0.53693990    -0.15000
H1005       H  0.87055493  0.91081669  0.48612845     0.20300
H1006       H  0.87734857  0.07298457  0.51607026     0.16400
H1007       H  0.87336141  0.09557005  0.46797909     0.18900
H1008       H  0.87081823  0.88846782  0.53439627     0.12200
C1009       C  0.97534053  0.17561510  0.36446336     0.16100
C1010       C  0.00440728  0.19621649  0.36896362    -0.32900
C1011       C  0.03090030  0.17038599  0.36387496     0.20500
C1012       C  0.02843066  0.12659885  0.35396816     0.02700
C1013       C  0.99943672  0.10639991  0.34900544    -0.22700
C1014       C  0.97300927  0.13159326  0.35486739     0.11900
S1015       S  0.94065560  0.19866053  0.37259392    -0.06300
C1016       C  0.92288845  0.14797826  0.36365354    -0.09800
C1017       C  0.94297701  0.11566318  0.35419033    -0.26400
S1018       S  0.06277169  0.09887198  0.35146653    -0.03600
C1019       C  0.08083593  0.14612930  0.36453467    -0.17000
C1020       C  0.06105428  0.18204034  0.36978403    -0.15000
H1021       H  0.00625629  0.22986107  0.37734107     0.20300
H1022       H  0.99756962  0.07154306  0.34218419     0.16400
H1023       H  0.93626068  0.08120748  0.34870142     0.18900
H1024       H  0.06796176  0.21339680  0.37912120     0.12200
C1025       C  0.73188615  0.41248504  0.73844265     0.16100
C1026       C  0.73241812  0.42163907  0.76382529    -0.32900
C1027       C  0.76076135  0.41708774  0.77643068     0.20500
C1028       C  0.78760534  0.40462004  0.76439168     0.02700
C1029       C  0.78698908  0.39489071  0.73901982    -0.22700
C1030       C  0.75849799  0.39878635  0.72645652     0.11900
S1031       S  0.69993003  0.41681959  0.71968545    -0.06300
C1032       C  0.72244217  0.39879849  0.69551695    -0.09800
C1033       C  0.75312433  0.39046422  0.70189286    -0.26400
S1034       S  0.81967490  0.40157633  0.78324386    -0.03600
C1035       C  0.79640941  0.41624628  0.80763796    -0.17000
C1036       C  0.76564329  0.42345615  0.80115706    -0.15000
H1037       H  0.71162674  0.43177300  0.77336504     0.20300
H1038       H  0.80774651  0.38456185  0.72950439     0.16400
H1039       H  0.77074420  0.37967592  0.68907459     0.18900
H1040       H  0.74760849  0.43247653  0.81402080     0.12200
C1041       C  0.62452509  0.48129845  0.47602810     0.16100
C1042       C  0.62539374  0.44349659  0.49205224    -0.32900
C1043       C  0.62467277  0.45205073  0.51756105     0.20500
C1044       C  0.62258155  0.49621500  0.52682484     0.02700
C1045       C  0.62100139  0.53403016  0.51076173    -0.22700
C1046       C  0.62228664  0.52551184  0.48521049     0.11900
S1047       S  0.62890446  0.47847089  0.44466124    -0.06300
C1048       C  0.62786714  0.53757256  0.44374318    -0.09800
C1049       C  0.62385017  0.55783674  0.46677033    -0.26400
S1050       S  0.62501729  0.49932509  0.55841125    -0.03600
C1051       C  0.62928702  0.44050508  0.55912888    -0.17000
C1052       C  0.62821458  0.42009985  0.53593038    -0.15000
H1053       H  0.62791662  0.40899463  0.48497089     0.20300
H1054       H  0.62015822  0.56872184  0.51788367     0.16400
H1055       H  0.62399572  0.59451402  0.47005048     0.18900
H1056       H  0.63169751  0.38388955  0.53253966     0.12200
C1057       C  0.76094733  0.65988492  0.63502988     0.16100
C1058       C  0.73746695  0.62665160  0.63546532    -0.32900
C1059       C  0.74449279  0.58289473  0.62670352     0.20500
C1060       C  0.77384002  0.57175092  0.61860534     0.02700
C1061       C  0.79751521  0.60517597  0.61819914    -0.22700
C1062       C  0.79020103  0.64961059  0.62632086     0.11900
S1063       S  0.75569348  0.71604497  0.64234172    -0.06300
C1064       C  0.79294206  0.72664536  0.63263530    -0.09800
C1065       C  0.80884870  0.68791994  0.62511767    -0.26400
S1066       S  0.77740344  0.51550532  0.60973194    -0.03600
C1067       C  0.73872636  0.50782327  0.61650903    -0.17000
C1068       C  0.72432125  0.54681482  0.62520322    -0.15000
H1069       H  0.71439502  0.63490581  0.64170154     0.20300
H1070       H  0.82034430  0.59722571  0.61135049     0.16400
H1071       H  0.83189158  0.68834820  0.61734490     0.18900
H1072       H  0.70043463  0.54825505  0.63114718     0.12200
C1073       C  0.76630402  0.09102341  0.63041598     0.16100
C1074       C  0.76662326  0.13743436  0.63677815    -0.32900
C1075       C  0.73900288  0.16144937  0.63429579     0.20500
C1076       C  0.71197181  0.14020606  0.62605997     0.02700
C1077       C  0.71157668  0.09323298  0.61985817    -0.22700
C1078       C  0.73953065  0.06907391  0.62210111     0.11900
S1079       S  0.79778955  0.05713790  0.63223565    -0.06300
C1080       C  0.77509650  0.01199818  0.62183911    -0.09800
C1081       C  0.74444511  0.02323993  0.61698771    -0.26400
S1082       S  0.68157152  0.17697224  0.62262037    -0.03600
C1083       C  0.70593571  0.22120133  0.63185108    -0.17000
C1084       C  0.73564471  0.20753671  0.63784472    -0.15000
H1085       H  0.78775184  0.15435838  0.64300881     0.20300
H1086       H  0.69062909  0.07656328  0.61313566     0.16400
H1087       H  0.72670675  0.99917493  0.61090160     0.18900
H1088       H  0.75447040  0.23066832  0.64290800     0.12200
C1089       C  0.47901892  0.32072249  0.64897573     0.16100
C1090       C  0.50785809  0.30126017  0.64399764    -0.32900
C1091       C  0.53444488  0.32644624  0.65075728     0.20500
C1092       C  0.53245518  0.36779140  0.66330155     0.02700
C1093       C  0.50360780  0.38652553  0.66898783    -0.22700
C1094       C  0.47704065  0.36272044  0.66087659     0.11900
S1095       S  0.44454427  0.30018350  0.63776811    -0.06300
C1096       C  0.42752920  0.34976974  0.64809589    -0.09800
C1097       C  0.44746898  0.37937821  0.66061819    -0.26400
S1098       S  0.56701399  0.39598390  0.66701729    -0.03600
C1099       C  0.58409073  0.35290994  0.65032288    -0.17000
C1100       C  0.56410529  0.31752922  0.64344113    -0.15000
H1101       H  0.50949757  0.26981713  0.63346716     0.20300
H1102       H  0.50199422  0.42002631  0.67748885     0.16400
H1103       H  0.44123273  0.41306407  0.66726500     0.18900
H1104       H  0.57041282  0.28889227  0.63184166     0.12200
C1105       C  0.76147102  0.26866414  0.52253443     0.16100
C1106       C  0.78438462  0.24811371  0.50827665    -0.32900
C1107       C  0.77471184  0.21691299  0.49002442     0.20500
C1108       C  0.74364764  0.20667929  0.48596804     0.02700
C1109       C  0.72077473  0.22661622  0.50049723    -0.22700
C1110       C  0.73046058  0.25777930  0.51874479     0.11900
S1111       S  0.76832394  0.30687854  0.54594361    -0.06300
C1112       C  0.72902242  0.30740670  0.55091328    -0.09800
C1113       C  0.71177774  0.27998478  0.53491189    -0.26400
S1114       S  0.73658490  0.17151519  0.46130452    -0.03600
C1115       C  0.77593747  0.17055556  0.45649491    -0.17000
C1116       C  0.79336072  0.19555773  0.47346148    -0.15000
H1117       H  0.80867596  0.25640775  0.51110955     0.20300
H1118       H  0.69644958  0.21875214  0.49746832     0.16400
H1119       H  0.68688349  0.27503819  0.53575948     0.18900
H1120       H  0.81823085  0.20068355  0.47258716     0.12200
loop_ 
_geom_bond_atom_site_label_1 
_geom_bond_atom_site_label_2 
_geom_bond_distance 
_geom_bond_site_symmetry_2 
_ccdc_geom_bond_type 
O1           C16   1.267       .  A
O1           Al9   1.916       .  S
C2           O12   1.272       .  A
C2            O3   1.261       .  A
C2         C1051   1.485       .  S
O3           Al5   1.882       .  S
O4            C6   1.254       .  A
O4           Al5   1.880       .  S
Al5          O13   1.894       .  S
Al5          O15   1.900       .  S
Al5          O14   1.801       .  S
C6           O19   1.260       .  A
C6         C1112   1.466       .  S
O7           C17   1.257       .  A
O7           Al9   1.917       .  S
O8           C21   1.268       .  A
O8          Al18   1.931       .  S
Al9          O22   1.884       .  S
Al9          O19   1.910       .  S
Al9          O14   1.802       .  S
O10          C17   1.249       .  A
O10         Al18   1.858       .  S
O11          C20   1.250       .  A
O11         Al18   1.887       .  S
O12         Al18   1.948       .  S
O13          C20   1.252       .  A
O14         Al18   1.793       .  S
O15          C16   1.264       .  A
C16        C1083   1.471       .  S
C17        C1067   1.470       .  S
C20        C1099   1.471       .  S
C21          O22   1.260       .  A
C21        C1032   1.477       .  S
O23          C38   1.266       .  A
O23         Al31   1.912       .  S
C24          O34   1.266       .  A
C24          O25   1.268       .  A
C24        C1000   1.481       .  S
O25         Al27   1.921       .  S
O26          C28   1.256       .  A
O26         Al27   1.886       .  S
Al27         O35   1.918       .  S
Al27         O37   1.936       .  S
Al27         O36   1.788       .  S
C28          O41   1.263       .  A
C28         C984   1.474   1_545  S
O29          C39   1.259       .  A
O29         Al31   1.908       .  S
O30          C43   1.259       .  A
O30         Al40   1.893       .  S
Al31         O44   1.911       .  S
Al31         O41   1.928       .  S
Al31         O36   1.790       .  S
O32          C39   1.254       .  A
O32         Al40   1.874       .  S
O33          C42   1.254       .  A
O33         Al40   1.893       .  S
O34         Al40   1.915       .  S
O35          C42   1.258       .  A
O36         Al40   1.786       .  S
O37          C38   1.273       .  A
C38         C952   1.480       .  S
C39        C1115   1.465       .  S
C42        C1016   1.475       .  S
C43          O44   1.265       .  A
C43         C971   1.472       .  S
O45          C60   1.264       .  A
O45         Al53   1.906       .  S
C46          O56   1.260       .  A
C46          O47   1.268       .  A
C46         C923   1.487       .  S
O47         Al49   1.945       .  S
O48          C50   1.258       .  A
O48         Al49   1.882       .  S
Al49         O57   1.925       .  S
Al49         O59   1.948       .  S
Al49         O58   1.777       .  S
C50          O63   1.263       .  A
C50         C904   1.471       .  S
O51          C61   1.264       .  A
O51         Al53   1.918       .  S
O52          C65   1.259       .  A
O52         Al62   1.897       .  S
Al53         O66   1.906       .  S
Al53         O63   1.921       .  S
Al53         O58   1.782       .  S
O54          C61   1.255       .  A
O54         Al62   1.876       .  S
O55          C64   1.258       .  A
O55         Al62   1.891       .  S
O56         Al62   1.908       .  S
O57          C64   1.264       .  A
O58         Al62   1.785       .  S
O59          C60   1.275       .  A
C60         C875   1.488       .  S
C61         C939   1.462       .  S
C64        C1096   1.471       .  S
C65          O66   1.261       .  A
C65         C891   1.465       .  S
O67          C82   1.261       .  A
O67         Al75   1.900       .  S
C68          O78   1.271       .  A
C68          O69   1.265       .  A
C68         C824   1.483       .  S
O69         Al71   1.913       .  S
O70          C72   1.255       .  A
O70         Al71   1.876       .  S
Al71         O79   1.917       .  S
Al71         O81   1.905       .  S
Al71         O80   1.794       .  S
C72          O85   1.260       .  A
C72         C936   1.462       .  S
O73          C83   1.262       .  A
O73         Al75   1.939       .  S
O74          C87   1.277       .  A
O74         Al84   1.941       .  S
Al75         O88   1.905       .  S
Al75         O85   1.898       .  S
Al75         O80   1.785       .  S
O76          C83   1.250       .  A
O76         Al84   1.871       .  S
O77          C86   1.256       .  A
O77         Al84   1.896       .  S
O78         Al84   1.934       .  S
O79          C86   1.260       .  A
O80         Al84   1.783       .  S
O81          C82   1.260       .  A
C82         C859   1.473       .  S
C83         C843   1.474       .  S
C86        C1019   1.476       .  S
C87          O88   1.267       .  A
C87         C808   1.482       .  S
O89         C104   1.260       .  A
O89         Al97   1.882       .  S
C90         O100   1.272       .  A
C90          O91   1.267       .  A
C90         C827   1.481       .  S
O91         Al93   1.912       .  S
O92          C94   1.253       .  A
O92         Al93   1.881       .  S
Al93        O101   1.907       .  S
Al93        O103   1.914       .  S
Al93        O102   1.788       .  S
C94         O107   1.257       .  A
C94         C792   1.463       .  S
O95         C105   1.260       .  A
O95         Al97   1.922       .  S
O96         C109   1.280       .  A
O96        Al106   1.953       .  S
Al97        O110   1.904       .  S
Al97        O107   1.895       .  S
Al97        O102   1.780       .  S
O98         C105   1.254       .  A
O98        Al106   1.890       .  S
O99         C108   1.258       .  A
O99        Al106   1.914       .  S
O100       Al106   1.939       .  S
O101        C108   1.257       .  A
O102       Al106   1.786       .  S
O103        C104   1.264       .  A
C104        C907   1.469       .  S
C105        C888   1.467   1_565  S
C108        C776   1.481       .  S
C109        O110   1.267       .  A
C109        C763   1.485       .  S
O111        C126   1.265       .  A
O111       Al119   1.908       .  S
C112        O122   1.262       .  A
C112        O113   1.269       .  A
C112        C920   1.484       .  S
O113       Al115   1.941       .  S
O114        C116   1.255       .  A
O114       Al115   1.873       .  S
Al115       O123   1.902       .  S
Al115       O125   1.939       .  S
Al115       O124   1.780       .  S
C116        O129   1.265       .  A
C116        C856   1.477       .  S
O117        C127   1.261       .  A
O117       Al119   1.914       .  S
O118        C131   1.260       .  A
O118       Al128   1.899       .  S
Al119       O132   1.917       .  S
Al119       O129   1.939       .  S
Al119       O124   1.790       .  S
O120        C127   1.255       .  A
O120       Al128   1.876       .  S
O121        C130   1.260       .  A
O121       Al128   1.909       .  S
O122       Al128   1.907       .  S
O123        C130   1.259       .  A
O124       Al128   1.787       .  S
O125        C126   1.273       .  A
C126        C728   1.481       .  S
C127        C795   1.463       .  S
C130        C747   1.472       .  S
C131        O132   1.264       .  A
C131        C840   1.474       .  S
O133        C148   1.267       .  A
O133       Al141   1.908       .  S
C134        O144   1.269       .  A
C134        O135   1.270       .  A
C134       C1003   1.481       .  S
O135       Al137   1.919       .  S
O136        C138   1.249       .  A
O136       Al137   1.863       .  S
Al137       O145   1.901       .  S
Al137       O147   1.942       .  S
Al137       O146   1.795       .  S
C138        O151   1.261       .  A
C138       C1080   1.474   1_565  S
O139        C149   1.257       .  A
O139       Al141   1.912       .  S
O140        C153   1.262       .  A
O140       Al150   1.897       .  S
Al141       O154   1.893       .  S
Al141       O151   1.938       .  S
Al141       O146   1.801       .  S
O142        C149   1.250       .  A
O142       Al150   1.866       .  S
O143        C152   1.250       .  A
O143       Al150   1.897       .  S
O144       Al150   1.912       .  S
O145        C152   1.251       .  A
O146       Al150   1.797       .  S
O147        C148   1.277       .  A
C148        C696   1.487       .  S
C149        C715   1.475       .  S
C152        C779   1.481       .  S
C153        O154   1.262       .  A
C153       C1064   1.469       .  S
O155        C170   1.264       .  A
O155       Al163   1.901       .  S
C156        O166   1.268       .  A
C156        O157   1.265       .  A
C156       C1048   1.485       .  S
O157       Al159   1.917       .  S
O158        C160   1.253       .  A
O158       Al159   1.874       .  S
Al159       O167   1.894       .  S
Al159       O169   1.904       .  S
Al159       O168   1.788       .  S
C160        O173   1.261       .  A
C160        C712   1.474       .  S
O161        C171   1.267       .  A
O161       Al163   1.934       .  S
O162        C175   1.273       .  A
O162       Al172   1.941       .  S
Al163       O176   1.920       .  S
Al163       O173   1.926       .  S
Al163       O168   1.793       .  S
O164        C171   1.257       .  A
O164       Al172   1.884       .  S
O165        C174   1.258       .  A
O165       Al172   1.909       .  S
O166       Al172   1.924       .  S
O167        C174   1.254       .  A
O168       Al172   1.782       .  S
O169        C170   1.262       .  A
C170        C987   1.470       .  S
C171        C968   1.474       .  S
C174        C744   1.474       .  S
C175        O176   1.265       .  A
C175        C683   1.480       .  S
O177        C192   1.262       .  A
O177       Al185   1.898       .  S
C178        O188   1.270       .  A
C178        O179   1.268       .  A
C178        C603   1.487       .  S
O179       Al181   1.925       .  S
O180        C182   1.255       .  A
O180       Al181   1.881       .  S
Al181       O189   1.909       .  S
Al181       O191   1.916       .  S
Al181       O190   1.790       .  S
C182        O195   1.258       .  A
C182        C664   1.463       .  S
O183        C193   1.260       .  A
O183       Al185   1.925       .  S
O184        C197   1.273       .  A
O184       Al194   1.934       .  S
Al185       O198   1.910       .  S
Al185       O195   1.894       .  S
Al185       O190   1.785       .  S
O186        C193   1.256       .  A
O186       Al194   1.894       .  S
O187        C196   1.257       .  A
O187       Al194   1.907       .  S
O188       Al194   1.928       .  S
O189        C196   1.258       .  A
O190       Al194   1.784       .  S
O191        C192   1.263       .  A
C192        C632   1.477       .  S
C193        C616   1.475       .  S
C196        C648   1.477       .  S
C197        O198   1.266       .  A
C197       C1035   1.477       .  S
O199        C214   1.259       .  A
O199       Al207   1.865       .  S
C200        O210   1.257       .  A
C200        O201   1.274       .  A
C200        C568   1.482       .  S
O201       Al203   1.964       .  S
O202        C204   1.252       .  A
O202       Al203   1.872       .  S
Al203       O211   1.912       .  S
Al203       O213   1.963       .  S
Al203       O212   1.786       .  S
C204        O217   1.258       .  A
C204        C555   1.471       .  S
O205        C215   1.262       .  A
O205       Al207   1.909       .  S
O206        C219   1.261       .  A
O206       Al216   1.901       .  S
Al207       O220   1.912       .  S
Al207       O217   1.922       .  S
Al207       O212   1.795       .  S
O208        C215   1.258       .  A
O208       Al216   1.889       .  S
O209        C218   1.252       .  A
O209       Al216   1.881       .  S
O210       Al216   1.863       .  S
O211        C218   1.257       .  A
O212       Al216   1.788       .  S
O213        C214   1.274       .  A
C214        C955   1.479       .  S
C215        C667   1.461       .  S
C218        C584   1.473       .  S
C219        O220   1.266       .  A
C219        C539   1.465       .  S
O221        C236   1.261       .  A
O221       Al229   1.885       .  S
C222        O232   1.264       .  A
C222        O223   1.277       .  A
C222        C504   1.489       .  S
O223       Al225   1.964       .  S
O224        C226   1.248       .  A
O224       Al225   1.856       .  S
Al225       O233   1.900       .  S
Al225       O235   1.951       .  S
Al225       O234   1.800       .  S
C226        O239   1.253       .  A
C226        C488   1.471       .  S
O227        C237   1.256       .  A
O227       Al229   1.908       .  S
O228        C241   1.265       .  A
O228       Al238   1.904       .  S
Al229       O242   1.909       .  S
Al229       O239   1.908       .  S
Al229       O234   1.808       .  S
O230        C237   1.250       .  A
O230       Al238   1.874       .  S
O231        C240   1.246       .  A
O231       Al238   1.880       .  S
O232       Al238   1.882       .  S
O233        C240   1.249       .  A
O234       Al238   1.800       .  S
O235        C236   1.273       .  A
C236        C872   1.487       .  S
C237        C520   1.464       .  S
C240        C651   1.478       .  S
C241        O242   1.267       .  A
C241        C472   1.471       .  S
O243        C258   1.263       .  A
O243       Al251   1.909       .  S
C244        O254   1.271       .  A
C244        O245   1.267       .  A
C244        C427   1.485       .  S
O245       Al247   1.916       .  S
O246        C248   1.253       .  A
O246       Al247   1.873       .  S
Al247       O255   1.915       .  S
Al247       O257   1.905       .  S
Al247       O256   1.798       .  S
C248        O261   1.257       .  A
C248        C523   1.467       .  S
O249        C259   1.261       .  A
O249       Al251   1.938       .  S
O250        C263   1.274       .  A
O250       Al260   1.938       .  S
Al251       O264   1.905       .  S
Al251       O261   1.899       .  S
Al251       O256   1.797       .  S
O252        C259   1.248       .  A
O252       Al260   1.863       .  S
O253        C262   1.249       .  A
O253       Al260   1.877       .  S
O254       Al260   1.928       .  S
O255        C262   1.256       .  A
O256       Al260   1.791       .  S
O257        C258   1.261       .  A
C258        C456   1.479       .  S
C259        C440   1.474   1_545  S
C262        C587   1.474       .  S
C263        O264   1.266       .  A
C263        C811   1.482       .  S
O265        C280   1.263       .  A
O265       Al273   1.889       .  S
C266        O276   1.267       .  A
C266        O267   1.266       .  A
C266        C424   1.486       .  S
O267       Al269   1.918       .  S
O268        C270   1.253       .  A
O268       Al269   1.886       .  S
Al269       O277   1.905       .  S
Al269       O279   1.917       .  S
Al269       O278   1.793       .  S
C270        O283   1.254       .  A
C270        C411   1.464       .  S
O271        C281   1.263       .  A
O271       Al273   1.920       .  S
O272        C285   1.273       .  A
O272       Al282   1.951       .  S
Al273       O286   1.894       .  S
Al273       O283   1.892       .  S
Al273       O278   1.791       .  S
O274        C281   1.257       .  A
O274       Al282   1.886       .  S
O275        C284   1.257       .  A
O275       Al282   1.903       .  S
O276       Al282   1.919       .  S
O277        C284   1.256       .  A
O278       Al282   1.786       .  S
O279        C280   1.266       .  A
C280        C491   1.469       .  S
C281        C475   1.462   1_565  S
C284        C392   1.480       .  S
C285        O286   1.261       .  A
C285        C760   1.482       .  S
O287        C302   1.265       .  A
O287       Al295   1.900       .  S
C288        O298   1.263       .  A
C288        O289   1.269       .  A
C288        C507   1.485       .  S
O289       Al291   1.929       .  S
O290        C292   1.257       .  A
O290       Al291   1.893       .  S
Al291       O299   1.922       .  S
Al291       O301   1.942       .  S
Al291       O300   1.787       .  S
C292        O305   1.264       .  A
C292        C459   1.480       .  S
O293        C303   1.259       .  A
O293       Al295   1.900       .  S
O294        C307   1.259       .  A
O294       Al304   1.895       .  S
Al295       O308   1.912       .  S
Al295       O305   1.932       .  S
Al295       O300   1.785       .  S
O296        C303   1.255       .  A
O296       Al304   1.882       .  S
O297        C306   1.255       .  A
O297       Al304   1.892       .  S
O298       Al304   1.915       .  S
O299        C306   1.261       .  A
O300       Al304   1.788       .  S
O301        C302   1.275       .  A
C302        C731   1.484       .  S
C303        C408   1.463       .  S
C306        C379   1.473       .  S
C307        O308   1.264       .  A
C307        C443   1.473       .  S
O309        C324   1.266       .  A
O309       Al317   1.914       .  S
C310        O320   1.265       .  A
C310        O311   1.269       .  A
C310        C571   1.481       .  S
O311       Al313   1.925       .  S
O312        C314   1.257       .  A
O312       Al313   1.896       .  S
Al313       O321   1.911       .  S
Al313       O323   1.937       .  S
Al313       O322   1.782       .  S
C314        O327   1.262       .  A
C314        C635   1.480   1_565  S
O315        C325   1.259       .  A
O315       Al317   1.903       .  S
O316        C329   1.261       .  A
O316       Al326   1.905       .  S
Al317       O330   1.903       .  S
Al317       O327   1.929       .  S
Al317       O322   1.787       .  S
O318        C325   1.254       .  A
O318       Al326   1.875       .  S
O319        C328   1.257       .  A
O319       Al326   1.905       .  S
O320       Al326   1.915       .  S
O321        C328   1.259       .  A
O322       Al326   1.794       .  S
O323        C324   1.274       .  A
C324        C699   1.482       .  S
C325        C363   1.462       .  S
C328        C395   1.478       .  S
C329        O330   1.262       .  A
C329        C619   1.473       .  S
O331        C346   1.263       .  A
O331       Al339   1.906       .  S
C332        O342   1.272       .  A
C332        O333   1.256       .  A
C332        C600   1.490       .  S
O333       Al335   1.869       .  S
O334        C336   1.264       .  A
O334       Al335   1.897       .  S
Al335       O343   1.908       .  S
Al335       O345   1.915       .  S
Al335       O344   1.784       .  S
C336        O349   1.266       .  A
C336        C360   1.461       .  S
O337        C347   1.258       .  A
O337       Al339   1.936       .  S
O338        C351   1.279       .  A
O338       Al348   1.984       .  S
Al339       O352   1.874       .  S
Al339       O349   1.907       .  S
Al339       O344   1.793       .  S
O340        C347   1.247       .  A
O340       Al348   1.856       .  S
O341        C350   1.255       .  A
O341       Al348   1.887       .  S
O342       Al348   1.967       .  S
O343        C350   1.259       .  A
O344       Al348   1.777       .  S
O345        C346   1.263       .  A
C346        C552   1.472       .  S
C347        C536   1.466       .  S
C350        C376   1.472       .  S
C351        O352   1.262       .  A
C351        C680   1.491       .  S
C353        S359   1.712       .  A
C353        C358   1.386       .  A
C353        C354   1.401       .  A
C354        C355   1.404   1_554  A
C354        H365   1.083       .  S
C355        C364   1.365       .  A
C355        C356   1.387       .  A
C356        S362   1.703       .  A
C356        C357   1.394   1_556  A
C357        C358   1.397       .  A
C357        H366   1.084       .  S
C358        C361   1.358       .  A
S359        C360   1.721       .  A
C360        C361   1.383       .  A
C361        H367   1.084       .  S
S362        C363   1.718       .  A
C363        C364   1.387       .  A
C364        H368   1.084       .  S
C369        S375   1.706       .  A
C369        C374   1.387       .  A
C369        C370   1.401   1_655  A
C370        C371   1.402       .  A
C370        H381   1.083       .  S
C371        C380   1.371       .  A
C371        C372   1.387       .  A
C372        S378   1.707       .  A
C372        C373   1.403   1_455  A
C373        C374   1.403       .  A
C373        H382   1.083       .  S
C374        C377   1.372       .  A
S375        C376   1.723       .  A
C376        C377   1.387       .  A
C377        H383   1.083       .  S
S378        C379   1.724       .  A
C379        C380   1.387       .  A
C380        H384   1.083       .  S
C385        S391   1.714       .  A
C385        C390   1.386       .  A
C385        C386   1.407       .  A
C386        C387   1.408       .  A
C386        H397   1.083       .  S
C387        C396   1.377       .  A
C387        C388   1.387       .  A
C388        S394   1.705       .  A
C388        C389   1.401       .  A
C389        C390   1.402       .  A
C389        H398   1.083       .  S
C390        C393   1.371       .  A
S391        C392   1.726       .  A
C392        C393   1.388       .  A
C393        H399   1.083       .  S
S394        C395   1.723       .  A
C395        C396   1.391       .  A
C396        H400   1.083       .  S
C401        S407   1.705       .  A
C401        C406   1.387       .  A
C401        C402   1.399   1_554  A
C402        C403   1.401       .  A
C402        H413   1.083       .  S
C403        C412   1.366       .  A
C403        C404   1.387   1_556  A
C404        S410   1.704   1_554  A
C404        C405   1.398       .  A
C405        C406   1.400       .  A
C405        H414   1.083       .  S
C406        C409   1.365       .  A
S407        C408   1.723       .  A
C408        C409   1.384       .  A
C409        H415   1.083       .  S
S410        C411   1.721       .  A
C411        C412   1.386       .  A
C412        H416   1.083       .  S
C417        S423   1.715       .  A
C417        C422   1.386   1_545  A
C417        C418   1.405   1_556  A
C418        C419   1.407       .  A
C418        H429   1.083   1_554  S
C419        C428   1.374       .  A
C419        C420   1.386   1_545  A
C420        S426   1.719       .  A
C420        C421   1.407       .  A
C421        C422   1.409   1_554  A
C421        H430   1.083       .  S
C422        C425   1.377       .  A
S423        C424   1.726   1_545  A
C424        C425   1.393       .  A
C425        H431   1.083       .  S
S426        C427   1.726   1_565  A
C427        C428   1.392       .  A
C428        H432   1.083       .  S
C433        S439   1.694       .  A
C433        C438   1.388       .  A
C433        C434   1.399       .  A
C434        C435   1.398       .  A
C434        H445   1.084       .  S
C435        C444   1.372       .  A
C435        C436   1.387       .  A
C436        S442   1.706       .  A
C436        C437   1.407       .  A
C437        C438   1.405       .  A
C437        H446   1.083       .  S
C438        C441   1.381       .  A
S439        C440   1.726       .  A
C440        C441   1.388       .  A
C441        H447   1.083       .  S
S442        C443   1.727       .  A
C443        C444   1.384       .  A
C444        H448   1.084       .  S
C449        S455   1.710       .  A
C449        C454   1.386       .  A
C449        C450   1.401       .  A
C450        C451   1.403       .  A
C450        H461   1.084       .  S
C451        C460   1.367       .  A
C451        C452   1.385       .  A
C452        S458   1.720       .  A
C452        C453   1.407       .  A
C453        C454   1.409       .  A
C453        H462   1.083       .  S
C454        C457   1.375       .  A
S455        C456   1.723       .  A
C456        C457   1.392       .  A
C457        H463   1.083       .  S
S458        C459   1.725       .  A
C459        C460   1.390       .  A
C460        H464   1.084       .  S
C465        S471   1.714       .  A
C465        C470   1.385       .  A
C465        C466   1.407       .  A
C466        C467   1.408       .  A
C466        H477   1.083       .  S
C467        C476   1.377       .  A
C467        C468   1.388       .  A
C468        S474   1.697       .  A
C468        C469   1.395       .  A
C469        C470   1.396       .  A
C469        H478   1.084       .  S
C470        C473   1.363       .  A
S471        C472   1.727       .  A
C472        C473   1.385       .  A
C473        H479   1.084       .  S
S474        C475   1.719       .  A
C475        C476   1.388       .  A
C476        H480   1.083   1_545  S
C481        S487   1.717       .  A
C481        C486   1.386       .  A
C481        C482   1.406       .  A
C482        C483   1.408       .  A
C482        H493   1.082       .  S
C483        C492   1.373       .  A
C483        C484   1.387       .  A
C484        S490   1.701       .  A
C484        C485   1.395       .  A
C485        C486   1.397       .  A
C485        H494   1.083       .  S
C486        C489   1.360       .  A
S487        C488   1.725       .  A
C488        C489   1.385       .  A
C489        H495   1.083       .  S
S490        C491   1.720       .  A
C491        C492   1.390       .  A
C492        H496   1.083       .  S
C497        S503   1.703       .  A
C497        C502   1.386       .  A
C497        C498   1.405   1_556  A
C498        C499   1.403       .  A
C498        H509   1.082       .  S
C499        C508   1.379       .  A
C499        C500   1.386       .  A
C500        S506   1.711       .  A
C500        C501   1.411   1_554  A
C501        C502   1.410       .  A
C501        H510   1.083       .  S
C502        C505   1.386       .  A
S503        C504   1.728       .  A
C504        C505   1.394       .  A
C505        H511   1.083       .  S
S506        C507   1.731       .  A
C507        C508   1.388       .  A
C508        H512   1.082       .  S
C513        S519   1.712       .  A
C513        C518   1.386       .  A
C513        C514   1.401       .  A
C514        C515   1.403   1_556  A
C514        H525   1.084       .  S
C515        C524   1.366       .  A
C515        C516   1.387       .  A
C516        S522   1.706       .  A
C516        C517   1.397       .  A
C517        C518   1.400   1_554  A
C517        H526   1.084       .  S
C518        C521   1.362       .  A
S519        C520   1.721       .  A
C520        C521   1.385       .  A
C521        H527   1.084       .  S
S522        C523   1.721       .  A
C523        C524   1.388       .  A
C524        H528   1.084       .  S
C529        S535   1.689       .  A
C529        C534   1.388       .  A
C529        C530   1.389       .  A
C530        C531   1.390       .  A
C530        H541   1.084       .  S
C531        C540   1.356       .  A
C531        C532   1.385       .  A
C532        S538   1.716       .  A
C532        C533   1.409       .  A
C533        C534   1.410       .  A
C533        H542   1.083       .  S
C534        C537   1.377       .  A
S535        C536   1.719       .  A
C536        C537   1.390       .  A
C537        H543   1.083       .  S
S538        C539   1.728       .  A
C539        C540   1.380       .  A
C540        H544   1.084       .  S
C545        S551   1.721       .  A
C545        C550   1.385       .  A
C545        C546   1.409       .  A
C546        C547   1.411       .  A
C546        H557   1.083       .  S
C547        C556   1.378       .  A
C547        C548   1.387       .  A
C548        S554   1.697       .  A
C548        C549   1.393       .  A
C549        C550   1.395       .  A
C549        H558   1.084       .  S
C550        C553   1.359       .  A
S551        C552   1.727       .  A
C552        C553   1.384       .  A
C553        H559   1.084       .  S
S554        C555   1.719   1_565  A
C555        C556   1.392   1_545  A
C556        H560   1.083   1_565  S
C561        S567   1.700       .  A
C561        C566   1.387       .  A
C561        C562   1.403   1_554  A
C562        C563   1.401       .  A
C562        H573   1.083       .  S
C563        C572   1.377       .  A
C563        C564   1.387   1_545  A
C564        S570   1.707       .  A
C564        C565   1.408   1_556  A
C565        C566   1.406   1_565  A
C565        H574   1.083       .  S
C566        C569   1.383       .  A
S567        C568   1.727       .  A
C568        C569   1.390       .  A
C569        H575   1.083       .  S
S570        C571   1.729       .  A
C571        C572   1.387   1_565  A
C572        H576   1.083       .  S
C577        S583   1.702       .  A
C577        C582   1.387       .  A
C577        C578   1.402       .  A
C578        C579   1.401       .  A
C578        H589   1.082       .  S
C579        C588   1.375       .  A
C579        C580   1.387       .  A
C580        S586   1.702       .  A
C580        C581   1.404       .  A
C581        C582   1.402       .  A
C581        H590   1.082       .  S
C582        C585   1.376       .  A
S583        C584   1.724       .  A
C584        C585   1.387       .  A
C585        H591   1.083       .  S
S586        C587   1.726       .  A
C587        C588   1.386       .  A
C588        H592   1.083       .  S
C593        S599   1.703       .  A
C593        C598   1.386       .  A
C593        C594   1.406   1_554  A
C594        C595   1.404       .  A
C594        H605   1.083       .  S
C595        C604   1.381       .  A
C595        C596   1.386       .  A
C596        S602   1.710       .  A
C596        C597   1.410   1_556  A
C597        C598   1.408       .  A
C597        H606   1.083       .  S
C598        C601   1.387       .  A
S599        C600   1.729       .  A
C600        C601   1.393       .  A
C601        H607   1.083       .  S
S602        C603   1.730       .  A
C603        C604   1.390       .  A
C604        H608   1.083       .  S
C609        S615   1.719       .  A
C609        C614   1.386       .  A
C609        C610   1.406       .  A
C610        C611   1.409       .  A
C610        H621   1.083       .  S
C611        C620   1.373       .  A
C611        C612   1.387       .  A
C612        S618   1.707       .  A
C612        C613   1.397       .  A
C613        C614   1.400       .  A
C613        H622   1.083       .  S
C614        C617   1.363       .  A
S615        C616   1.725       .  A
C616        C617   1.386       .  A
C617        H623   1.083       .  S
S618        C619   1.720       .  A
C619        C620   1.391       .  A
C620        H624   1.083       .  S
C625        S631   1.706       .  A
C625        C630   1.386       .  A
C625        C626   1.398       .  A
C626        C627   1.401       .  A
C626        H637   1.082       .  S
C627        C636   1.365       .  A
C627        C628   1.385       .  A
C628        S634   1.721       .  A
C628        C629   1.408       .  A
C629        C630   1.410       .  A
C629        H638   1.082       .  S
C630        C633   1.376       .  A
S631        C632   1.722       .  A
C632        C633   1.392       .  A
C633        H639   1.082       .  S
S634        C635   1.727       .  A
C635        C636   1.388       .  A
C636        H640   1.083       .  S
C641        S647   1.707       .  A
C641        C646   1.387       .  A
C641        C642   1.404   1_655  A
C642        C643   1.404       .  A
C642        H653   1.083       .  S
C643        C652   1.375       .  A
C643        C644   1.387       .  A
C644        S650   1.707       .  A
C644        C645   1.404       .  A
C645        C646   1.404   1_455  A
C645        H654   1.083   1_455  S
C646        C649   1.375       .  A
S647        C648   1.725       .  A
C648        C649   1.388       .  A
C649        H655   1.083       .  S
S650        C651   1.725       .  A
C651        C652   1.388       .  A
C652        H656   1.083       .  S
C657        S663   1.701       .  A
C657        C662   1.387       .  A
C657        C658   1.394       .  A
C658        C659   1.397   1_556  A
C658        H669   1.084       .  S
C659        C668   1.359       .  A
C659        C660   1.387       .  A
C660        S666   1.712       .  A
C660        C661   1.401       .  A
C661        C662   1.404   1_554  A
C661        H670   1.083       .  S
C662        C665   1.367       .  A
S663        C664   1.719       .  A
C664        C665   1.387       .  A
C665        H671   1.083       .  S
S666        C667   1.721       .  A
C667        C668   1.383       .  A
C668        H672   1.084       .  S
C673        S679   1.723       .  A
C673        C678   1.385       .  A
C673        C674   1.409       .  A
C674        C675   1.411       .  A
C674        H685   1.082       .  S
C675        C684   1.377       .  A
C675        C676   1.386       .  A
C676        S682   1.718       .  A
C676        C677   1.405       .  A
C677        C678   1.408       .  A
C677        H686   1.082       .  S
C678        C681   1.372       .  A
S679        C680   1.727       .  A
C680        C681   1.394       .  A
C681        H687   1.083       .  S
S682        C683   1.722       .  A
C683        C684   1.393       .  A
C684        H688   1.083       .  S
C689        S695   1.722       .  A
C689        C694   1.385       .  A
C689        C690   1.406       .  A
C690        C691   1.410       .  A
C690        H701   1.083       .  S
C691        C700   1.372       .  A
C691        C692   1.386       .  A
C692        S698   1.718       .  A
C692        C693   1.403       .  A
C693        C694   1.407       .  A
C693        H702   1.083       .  S
C694        C697   1.370       .  A
S695        C696   1.726       .  A
C696        C697   1.393       .  A
C697        H703   1.083       .  S
S698        C699   1.722       .  A
C699        C700   1.393       .  A
C700        H704   1.084       .  S
C705        S711   1.713       .  A
C705        C710   1.386       .  A
C705        C706   1.402       .  A
C706        C707   1.405       .  A
C706        H717   1.083       .  S
C707        C716   1.368       .  A
C707        C708   1.386       .  A
C708        S714   1.712       .  A
C708        C709   1.401       .  A
C709        C710   1.404       .  A
C709        H718   1.083       .  S
C710        C713   1.367       .  A
S711        C712   1.724       .  A
C712        C713   1.389       .  A
C713        H719   1.084       .  S
S714        C715   1.723       .  A
C715        C716   1.391       .  A
C716        H720   1.084       .  S
C721        S727   1.720       .  A
C721        C726   1.386       .  A
C721        C722   1.403       .  A
C722        C723   1.407       .  A
C722        H733   1.083       .  S
C723        C732   1.368       .  A
C723        C724   1.385       .  A
C724        S730   1.721       .  A
C724        C725   1.404       .  A
C725        C726   1.409       .  A
C725        H734   1.083       .  S
C726        C729   1.370       .  A
S727        C728   1.723       .  A
C728        C729   1.392       .  A
C729        H735   1.084       .  S
S730        C731   1.724       .  A
C731        C732   1.393       .  A
C732        H736   1.084       .  S
C737        S743   1.710       .  A
C737        C742   1.386       .  A
C737        C738   1.405       .  A
C738        C739   1.406       .  A
C738        H749   1.082       .  S
C739        C748   1.376       .  A
C739        C740   1.387       .  A
C740        S746   1.702       .  A
C740        C741   1.400       .  A
C741        C742   1.400       .  A
C741        H750   1.082       .  S
C742        C745   1.370       .  A
S743        C744   1.725       .  A
C744        C745   1.386       .  A
C745        H751   1.083       .  S
S746        C747   1.723       .  A
C747        C748   1.389       .  A
C748        H752   1.083       .  S
C753        S759   1.699       .  A
C753        C758   1.387       .  A
C753        C754   1.406       .  A
C754        C755   1.402       .  A
C754        H765   1.083       .  S
C755        C764   1.384       .  A
C755        C756   1.387       .  A
C756        S762   1.701       .  A
C756        C757   1.408       .  A
C757        C758   1.404       .  A
C757        H766   1.083       .  S
C758        C761   1.385       .  A
S759        C760   1.729       .  A
C760        C761   1.389       .  A
C761        H767   1.083       .  S
S762        C763   1.732       .  A
C763        C764   1.388       .  A
C764        H768   1.082       .  S
C769        S775   1.707       .  A
C769        C774   1.386       .  A
C769        C770   1.404       .  A
C770        C771   1.404   1_455  A
C770        H781   1.083       .  S
C771        C780   1.375       .  A
C771        C772   1.386       .  A
C772        S778   1.713       .  A
C772        C773   1.408   1_655  A
C773        C774   1.408       .  A
C773        H782   1.083       .  S
C774        C777   1.379       .  A
S775        C776   1.725       .  A
C776        C777   1.392       .  A
C777        H783   1.083       .  S
S778        C779   1.727       .  A
C779        C780   1.389       .  A
C780        H784   1.083       .  S
C785        S791   1.705       .  A
C785        C790   1.387       .  A
C785        C786   1.400       .  A
C786        C787   1.401       .  A
C786        H797   1.083       .  S
C787        C796   1.368       .  A
C787        C788   1.387       .  A
C788        S794   1.700       .  A
C788        C789   1.397       .  A
C789        C790   1.398       .  A
C789        H798   1.083       .  S
C790        C793   1.365       .  A
S791        C792   1.723       .  A
C792        C793   1.383       .  A
C793        H799   1.084       .  S
S794        C795   1.721       .  A
C795        C796   1.385       .  A
C796        H800   1.083       .  S
C801        S807   1.720       .  A
C801        C806   1.385       .  A
C801        C802   1.403       .  A
C802        C803   1.407       .  A
C802        H813   1.083       .  S
C803        C812   1.369       .  A
C803        C804   1.385       .  A
C804        S810   1.720       .  A
C804        C805   1.404       .  A
C805        C806   1.408       .  A
C805        H814   1.084       .  S
C806        C809   1.368       .  A
S807        C808   1.723       .  A
C808        C809   1.393       .  A
C809        H815   1.084       .  S
S810        C811   1.724       .  A
C811        C812   1.392       .  A
C812        H816   1.083       .  S
C817        S823   1.708       .  A
C817        C822   1.387       .  A
C817        C818   1.410       .  A
C818        C819   1.407       .  A
C818        H829   1.083       .  S
C819        C828   1.385       .  A
C819        C820   1.387   1_545  A
C820        S826   1.700       .  A
C820        C821   1.404       .  A
C821        C822   1.402   1_565  A
C821        H830   1.083       .  S
C822        C825   1.380       .  A
S823        C824   1.731       .  A
C824        C825   1.387       .  A
C825        H831   1.083   1_545  S
S826        C827   1.725       .  A
C827        C828   1.391   1_565  A
C828        H832   1.083       .  S
C833        S839   1.713       .  A
C833        C838   1.386       .  A
C833        C834   1.399       .  A
C834        C835   1.403       .  A
C834        H845   1.083       .  S
C835        C844   1.362       .  A
C835        C836   1.386       .  A
C836        S842   1.721       .  A
C836        C837   1.404       .  A
C837        C838   1.408       .  A
C837        H846   1.082       .  S
C838        C841   1.369       .  A
S839        C840   1.721       .  A
C840        C841   1.390       .  A
C841        H847   1.083       .  S
S842        C843   1.722   1_565  A
C843        C844   1.389   1_545  A
C844        H848   1.084       .  S
C849        S855   1.723       .  A
C849        C854   1.385       .  A
C849        C850   1.408       .  A
C850        C851   1.411       .  A
C850        H861   1.082       .  S
C851        C860   1.374       .  A
C851        C852   1.387       .  A
C852        S858   1.706       .  A
C852        C853   1.395       .  A
C853        C854   1.399       .  A
C853        H862   1.083       .  S
C854        C857   1.359       .  A
S855        C856   1.725       .  A
C856        C857   1.387       .  A
C857        H863   1.084       .  S
S858        C859   1.719       .  A
C859        C860   1.392       .  A
C860        H864   1.083       .  S
C865        S871   1.722       .  A
C865        C870   1.385       .  A
C865        C866   1.406       .  A
C866        C867   1.409       .  A
C866        H877   1.083       .  S
C867        C876   1.372       .  A
C867        C868   1.385       .  A
C868        S874   1.723       .  A
C868        C869   1.407       .  A
C869        C870   1.410       .  A
C869        H878   1.083       .  S
C870        C873   1.374       .  A
S871        C872   1.724       .  A
C872        C873   1.394       .  A
C873        H879   1.083       .  S
S874        C875   1.725       .  A
C875        C876   1.394       .  A
C876        H880   1.084       .  S
C881        S887   1.714       .  A
C881        C886   1.386       .  A
C881        C882   1.401       .  A
C882        C883   1.404       .  A
C882        H893   1.082       .  S
C883        C892   1.365       .  A
C883        C884   1.387       .  A
C884        S890   1.709       .  A
C884        C885   1.398       .  A
C885        C886   1.401       .  A
C885        H894   1.082       .  S
C886        C889   1.362       .  A
S887        C888   1.720       .  A
C888        C889   1.386       .  A
C889        H895   1.083       .  S
S890        C891   1.719       .  A
C891        C892   1.387       .  A
C892        H896   1.083       .  S
C897        S903   1.718       .  A
C897        C902   1.385       .  A
C897        C898   1.406       .  A
C898        C899   1.408       .  A
C898        H909   1.082       .  S
C899        C908   1.373       .  A
C899        C900   1.387       .  A
C900        S906   1.700       .  A
C900        C901   1.394       .  A
C901        C902   1.397       .  A
C901        H910   1.083       .  S
C902        C905   1.359       .  A
S903        C904   1.725       .  A
C904        C905   1.385       .  A
C905        H911   1.083       .  S
S906        C907   1.720       .  A
C907        C908   1.389       .  A
C908        H912   1.083       .  S
C913        S919   1.704       .  A
C913        C918   1.387       .  A
C913        C914   1.407       .  A
C914        C915   1.404       .  A
C914        H925   1.083       .  S
C915        C924   1.383       .  A
C915        C916   1.386       .  A
C916        S922   1.707       .  A
C916        C917   1.410       .  A
C917        C918   1.407       .  A
C917        H926   1.083       .  S
C918        C921   1.385       .  A
S919        C920   1.728       .  A
C920        C921   1.391       .  A
C921        H927   1.083       .  S
S922        C923   1.730       .  A
C923        C924   1.389       .  A
C924        H928   1.082       .  S
C929        S935   1.702       .  A
C929        C934   1.387       .  A
C929        C930   1.398       .  A
C930        C931   1.399       .  A
C930        H941   1.083       .  S
C931        C940   1.366       .  A
C931        C932   1.387       .  A
C932        S938   1.701       .  A
C932        C933   1.398       .  A
C933        C934   1.399       .  A
C933        H942   1.083       .  S
C934        C937   1.365       .  A
S935        C936   1.722       .  A
C936        C937   1.384       .  A
C937        H943   1.083       .  S
S938        C939   1.723       .  A
C939        C940   1.384       .  A
C940        H944   1.083       .  S
C945        S951   1.719       .  A
C945        C950   1.386       .  A
C945        C946   1.403       .  A
C946        C947   1.407       .  A
C946        H957   1.084       .  S
C947        C956   1.368       .  A
C947        C948   1.386       .  A
C948        S954   1.721       .  A
C948        C949   1.404       .  A
C949        C950   1.408       .  A
C949        H958   1.083       .  S
C950        C953   1.370       .  A
S951        C952   1.722       .  A
C952        C953   1.391       .  A
C953        H959   1.084       .  S
S954        C955   1.723       .  A
C955        C956   1.391       .  A
C956        H960   1.084       .  S
C961        S967   1.694       .  A
C961        C966   1.388       .  A
C961        C962   1.399       .  A
C962        C963   1.397       .  A
C962        H973   1.084       .  S
C963        C972   1.371       .  A
C963        C964   1.387       .  A
C964        S970   1.705       .  A
C964        C965   1.406       .  A
C965        C966   1.404       .  A
C965        H974   1.083       .  S
C966        C969   1.380       .  A
S967        C968   1.725       .  A
C968        C969   1.388       .  A
C969        H975   1.083       .  S
S970        C971   1.727       .  A
C971        C972   1.384       .  A
C972        H976   1.084       .  S
C977        S983   1.719       .  A
C977        C982   1.385       .  A
C977        C978   1.405       .  A
C978        C979   1.408       .  A
C978        H989   1.083       .  S
C979        C988   1.370       .  A
C979        C980   1.387       .  A
C980        S986   1.706       .  A
C980        C981   1.395       .  A
C981        C982   1.399       .  A
C981        H990   1.083       .  S
C982        C985   1.360       .  A
S983        C984   1.724       .  A
C984        C985   1.387       .  A
C985        H991   1.084       .  S
S986        C987   1.719       .  A
C987        C988   1.390       .  A
C988        H992   1.083       .  S
C993        S999   1.716       .  A
C993        C998   1.386   1_565  A
C993        C994   1.405       .  A
C994        C995   1.407       .  A
C994       H1005   1.083       .  S
C995       C1004   1.373       .  A
C995        C996   1.386   1_565  A
C996       S1002   1.715       .  A
C996        C997   1.404       .  A
C997        C998   1.407       .  A
C997       H1006   1.083       .  S
C998       C1001   1.372       .  A
S999       C1000   1.725   1_565  A
C1000      C1001   1.391       .  A
C1001      H1007   1.083       .  S
S1002      C1003   1.724   1_545  A
C1003      C1004   1.392       .  A
C1004      H1008   1.084       .  S
C1009      S1015   1.708       .  A
C1009      C1014   1.387       .  A
C1009      C1010   1.405   1_655  A
C1010      C1011   1.405       .  A
C1010      H1021   1.082       .  S
C1011      C1020   1.377       .  A
C1011      C1012   1.387       .  A
C1012      S1018   1.702       .  A
C1012      C1013   1.402   1_455  A
C1013      C1014   1.401       .  A
C1013      H1022   1.083       .  S
C1014      C1017   1.373       .  A
S1015      C1016   1.725       .  A
C1016      C1017   1.387       .  A
C1017      H1023   1.083       .  S
S1018      C1019   1.725       .  A
C1019      C1020   1.388       .  A
C1020      H1024   1.083       .  S
C1025      S1031   1.714       .  A
C1025      C1030   1.386       .  A
C1025      C1026   1.402       .  A
C1026      C1027   1.405       .  A
C1026      H1037   1.083       .  S
C1027      C1036   1.368       .  A
C1027      C1028   1.386       .  A
C1028      S1034   1.718       .  A
C1028      C1029   1.405       .  A
C1029      C1030   1.408       .  A
C1029      H1038   1.082       .  S
C1030      C1033   1.372       .  A
S1031      C1032   1.722       .  A
C1032      C1033   1.390       .  A
C1033      H1039   1.083       .  S
S1034      C1035   1.723       .  A
C1035      C1036   1.390       .  A
C1036      H1040   1.083       .  S
C1041      S1047   1.715       .  A
C1041      C1046   1.386       .  A
C1041      C1042   1.404       .  A
C1042      C1043   1.406       .  A
C1042      H1053   1.083       .  S
C1043      C1052   1.373       .  A
C1043      C1044   1.385       .  A
C1044      S1050   1.718       .  A
C1044      C1045   1.407       .  A
C1045      C1046   1.409       .  A
C1045      H1054   1.083       .  S
C1046      C1049   1.376       .  A
S1047      C1048   1.724       .  A
C1048      C1049   1.394       .  A
C1049      H1055   1.083       .  S
S1050      C1051   1.726       .  A
C1051      C1052   1.392       .  A
C1052      H1056   1.083       .  S
C1057      S1063   1.702       .  A
C1057      C1062   1.387       .  A
C1057      C1058   1.395       .  A
C1058      C1059   1.398       .  A
C1058      H1069   1.083       .  S
C1059      C1068   1.360       .  A
C1059      C1060   1.385       .  A
C1060      S1066   1.717       .  A
C1060      C1061   1.405       .  A
C1061      C1062   1.407       .  A
C1061      H1070   1.083       .  S
C1062      C1065   1.371       .  A
S1063      C1064   1.720       .  A
C1064      C1065   1.390       .  A
C1065      H1071   1.083       .  S
S1066      C1067   1.724       .  A
C1067      C1068   1.385       .  A
C1068      H1072   1.084       .  S
C1073      S1079   1.691       .  A
C1073      C1078   1.388       .  A
C1073      C1074   1.396       .  A
C1074      C1075   1.395       .  A
C1074      H1085   1.084       .  S
C1075      C1084   1.366       .  A
C1075      C1076   1.386       .  A
C1076      S1082   1.712       .  A
C1076      C1077   1.409       .  A
C1077      C1078   1.408       .  A
C1077      H1086   1.083       .  S
C1078      C1081   1.383       .  A
S1079      C1080   1.724       .  A
C1080      C1081   1.390       .  A
C1081      H1087   1.083   1_545  S
S1082      C1083   1.727       .  A
C1083      C1084   1.384       .  A
C1084      H1088   1.084       .  S
C1089      S1095   1.706       .  A
C1089      C1094   1.387       .  A
C1089      C1090   1.401       .  A
C1090      C1091   1.402       .  A
C1090      H1101   1.083       .  S
C1091      C1100   1.371       .  A
C1091      C1092   1.387       .  A
C1092      S1098   1.706       .  A
C1092      C1093   1.401       .  A
C1093      C1094   1.402       .  A
C1093      H1102   1.083       .  S
C1094      C1097   1.371       .  A
S1095      C1096   1.723       .  A
C1096      C1097   1.386       .  A
C1097      H1103   1.083       .  S
S1098      C1099   1.722       .  A
C1099      C1100   1.387       .  A
C1100      H1104   1.083       .  S
C1105      S1111   1.710       .  A
C1105      C1110   1.386       .  A
C1105      C1106   1.399       .  A
C1106      C1107   1.402       .  A
C1106      H1117   1.084       .  S
C1107      C1116   1.365       .  A
C1107      C1108   1.387       .  A
C1108      S1114   1.708       .  A
C1108      C1109   1.398       .  A
C1109      C1110   1.401       .  A
C1109      H1118   1.084       .  S
C1110      C1113   1.363       .  A
S1111      C1112   1.720       .  A
C1112      C1113   1.387       .  A
C1113      H1119   1.084       .  S
S1114      C1115   1.721       .  A
C1115      C1116   1.386       .  A
C1116      H1120   1.084       .  S
