geometry optimzed in LAMMPS
_audit_creation_date              2020-12-01 
_audit_creation_method            'lammps2cif' 
_symmetry_space_group_name_H-M    'P1' 
_symmetry_Int_Tables_number       1 
_symmetry_cell_setting            triclinic 
loop_ 
_symmetry_equiv_pos_as_xyz 
  x,y,z 
_cell_length_a                    51.17075525 
_cell_length_b                    41.96328483166001 
_cell_length_c                    24.597788233334988 
_cell_angle_alpha                 89.96194404676712 
_cell_angle_beta                  89.7486484020034 
_cell_angle_gamma                 90.62859161126933 
loop_ 
_atom_site_label 
_atom_site_type_symbol 
_atom_site_fract_x 
_atom_site_fract_y 
_atom_site_fract_z 
_atom_site_charge 
Fe1        Fe  0.37545893  0.86718311  0.66266353     1.65800
Fe2        Fe  0.34071981  0.85886458  0.54712398     1.73200
Fe3        Fe  0.37310728  0.79615922  0.59944442     1.54400
O4          O  0.41042239  0.80578615  0.62781367    -0.82200
O5          O  0.31313215  0.82370106  0.55604386    -0.80500
O6          O  0.41403231  0.85813908  0.64227996    -0.84700
O7          O  0.37577929  0.82980192  0.71833699    -0.79600
O8          O  0.38745775  0.80117847  0.52208061    -0.81300
O9          O  0.31939677  0.88511435  0.60417482    -0.84100
C10         C  0.36704390  0.80130856  0.71942701     0.96700
C11         C  0.42420492  0.83082290  0.63532314     1.04100
O12         O  0.36311742  0.84071650  0.60272906    -1.13100
O13         O  0.36631157  0.89613537  0.53244572    -0.75500
O14         O  0.37703633  0.90912291  0.61692017    -0.79000
O15         O  0.35962007  0.78713164  0.67669318    -0.79700
C16         C  0.37504531  0.91606023  0.56674469     0.95600
O17         O  0.33729459  0.87609953  0.68526119    -0.77600
O18         O  0.35809875  0.83299370  0.48409302    -0.82800
C19         C  0.31581492  0.79376439  0.55724616     0.98200
C20         C  0.37604484  0.81219653  0.48062192     1.04100
O21         O  0.33731712  0.78071329  0.56944800    -0.78500
C22         C  0.31805369  0.88444245  0.65604650     1.02400
Fe23       Fe  0.63306320  0.86448289  0.65758692     1.65800
Fe24       Fe  0.66789846  0.85654053  0.54380830     1.73200
Fe25       Fe  0.62735589  0.79681158  0.58288179     1.54400
O26         O  0.63618054  0.78190960  0.66054717    -0.82200
O27         O  0.65227213  0.83385039  0.47631328    -0.80500
O28         O  0.62745548  0.82540421  0.70851516    -0.84700
O29         O  0.59455800  0.86259217  0.63611764    -0.79600
O30         O  0.66305678  0.77803182  0.55589184    -0.81300
O31         O  0.64483112  0.89492504  0.52953072    -0.84100
C32         C  0.58044437  0.83877565  0.62281539     0.96700
C33         C  0.63120983  0.79556337  0.70527458     1.04100
O34         O  0.64252461  0.83902534  0.59459360    -1.13100
O35         O  0.68907061  0.88094443  0.60311520    -0.75500
O36         O  0.67149958  0.86692756  0.68227644    -0.79000
O37         O  0.59009963  0.81215889  0.60761224    -0.79700
C38         C  0.69080160  0.87690221  0.65421194     0.95600
O39         O  0.63657434  0.90768586  0.61552683    -0.77600
O40         O  0.69147754  0.81885738  0.55614457    -0.82800
C41         C  0.63275220  0.81594292  0.46615333     0.98200
C42         C  0.68614457  0.78953240  0.54993125     1.04100
O43         O  0.61731814  0.80637323  0.50338908    -0.78500
C44         C  0.63792410  0.91490437  0.56524265     1.02400
Fe45       Fe  0.62961768  0.63614638  0.15463988     1.65800
Fe46       Fe  0.67191783  0.64456809  0.05102813     1.73200
Fe47       Fe  0.63079025  0.70441277  0.08279896     1.54400
O48         O  0.59194732  0.69072442  0.10096927    -0.82200
O49         O  0.69551105  0.68249157  0.06726809    -0.80500
O50         O  0.59302500  0.63908203  0.12243642    -0.84700
O51         O  0.62225820  0.67501981  0.20490556    -0.79600
O52         O  0.62363160  0.69443147  0.00260227    -0.81300
O53         O  0.68991885  0.62161994  0.11683825    -0.84100
C54         C  0.62853586  0.70444073  0.20454123     0.96700
C55         C  0.58048183  0.66403942  0.11048105     1.04100
O56         O  0.64405154  0.66182371  0.09585505    -1.13100
O57         O  0.64985142  0.60511223  0.03136053    -0.75500
O58         O  0.63442530  0.59312416  0.11346546    -0.79000
O59         O  0.63716247  0.71817273  0.16207061    -0.79700
C60         C  0.63942787  0.58556614  0.06442710     0.95600
O61         O  0.66569363  0.63276971  0.18960529    -0.77600
O62         O  0.65900758  0.66697788  0.97991300    -0.82800
C63         C  0.69089542  0.71171393  0.05990101     0.98200
C64         C  0.63985493  0.68469954  0.96733032     1.04100
O65         O  0.66780125  0.72293219  0.06174261    -0.78500
C66         C  0.68715015  0.62437076  0.16826305     1.02400
Fe67       Fe  0.37730301  0.64062465  0.16658957     1.65800
Fe68       Fe  0.33885566  0.63926376  0.05713211     1.73200
Fe69       Fe  0.37158981  0.70603074  0.08869575     1.54400
O70         O  0.36068519  0.71990355  0.16485979    -0.82200
O71         O  0.34936875  0.66452309  0.98674701    -0.80500
O72         O  0.37903089  0.68210320  0.21478793    -0.84700
O73         O  0.41471619  0.64959503  0.13859958    -0.79600
O74         O  0.33373224  0.71629903  0.06253015    -0.81300
O75         O  0.36665836  0.60612408  0.04093788    -0.84100
C76         C  0.42455372  0.67628810  0.12382739     0.96700
C77         C  0.36908375  0.70969830  0.20981725     1.04100
O78         O  0.36284892  0.66210748  0.10395253    -1.13100
O79         O  0.32353584  0.61191349  0.12058293    -0.75500
O80         O  0.33991059  0.63238372  0.19632576    -0.79000
O81         O  0.41048681  0.70028247  0.11215100    -0.79700
C82         C  0.32127132  0.61905241  0.17063288     0.95600
O83         O  0.37763108  0.59590492  0.12658612    -0.77600
O84         O  0.31044195  0.67141502  0.07262553    -0.82800
C85         C  0.36714828  0.68492716  0.97541766     0.98200
C86         C  0.31202761  0.70100490  0.06314287     1.04100
O87         O  0.38272879  0.69536931  0.01116100    -0.78500
C88         C  0.37548470  0.58742585  0.07677209     1.02400
Fe89       Fe  0.13302724  0.86335872  0.83790532     1.65800
Fe90       Fe  0.16945262  0.86082758  0.95088958     1.73200
Fe91       Fe  0.13615332  0.79549772  0.91128109     1.54400
O92         O  0.09751959  0.80366572  0.88800903    -0.82200
O93         O  0.19748003  0.82812218  0.93521622    -0.80500
O94         O  0.09478998  0.85438452  0.86059441    -0.84700
O95         O  0.13195539  0.82389698  0.78532453    -0.79600
O96         O  0.12495511  0.80268126  0.99035040    -0.81300
O97         O  0.18699633  0.88917898  0.89106969    -0.84100
C98         C  0.14059961  0.79564980  0.78915280     0.96700
C99         C  0.08417093  0.82799554  0.87455731     1.04100
O100        O  0.14581393  0.83979614  0.90041714    -1.13100
O101        O  0.14215942  0.89490756  0.96751706    -0.75500
O102        O  0.13196051  0.90635032  0.88178705    -0.79000
O103        O  0.14714746  0.78358666  0.83406351    -0.79700
C104        C  0.13326022  0.91387372  0.93208853     0.95600
O105        O  0.17109540  0.87208952  0.81245244    -0.77600
O106        O  0.15709397  0.83433263  0.01865916    -0.82800
C107        C  0.19549465  0.79809453  0.93844058     0.98200
C108        C  0.13947778  0.81334182  0.02787008     1.04100
O109        O  0.17367240  0.78317224  0.93608425    -0.78500
C110        C  0.18962101  0.88399681  0.84038063     1.02400
Fe111      Fe  0.87615251  0.86823517  0.83564623     1.65800
Fe112      Fe  0.84105825  0.86176541  0.95023101     1.73200
Fe113      Fe  0.87931062  0.80061469  0.91064176     1.54400
O114        O  0.87042671  0.78555773  0.83288531    -0.82200
O115        O  0.85671530  0.83981564  0.01825375    -0.80500
O116        O  0.88051683  0.82898359  0.78546702    -0.84700
O117        O  0.91478622  0.86541691  0.85751386    -0.79600
O118        O  0.84291872  0.78273284  0.93700984    -0.81300
O119        O  0.86506987  0.90039483  0.96239218    -0.84100
C120        C  0.92792999  0.84124407  0.87183132     0.96700
C121        C  0.87602095  0.79919695  0.78831843     1.04100
O122        O  0.86565084  0.84326576  0.89902404    -1.13100
O123        O  0.82012738  0.88519495  0.88999625    -0.75500
O124        O  0.83773890  0.87120131  0.81093698    -0.79000
O125        O  0.91712972  0.81496625  0.88673284    -0.79700
C126        C  0.81840819  0.88067770  0.83896631     0.95600
O127        O  0.87388639  0.91186578  0.87608244    -0.77600
O128        O  0.81603923  0.82429701  0.94118044    -0.82800
C129        C  0.87533640  0.82084935  0.02764229     0.98200
C130        C  0.82031527  0.79468341  0.94473148     1.04100
O131        O  0.88961484  0.81000182  0.98985015    -0.78500
C132        C  0.87247605  0.91985834  0.92591275     1.02400
Fe133      Fe  0.87997462  0.64024123  0.33959848     1.65800
Fe134      Fe  0.83766396  0.64483790  0.44481015     1.73200
Fe135      Fe  0.87492488  0.70889929  0.40958362     1.54400
O136        O  0.91407345  0.69896525  0.39384886    -0.82200
O137        O  0.81180738  0.68038533  0.43220543    -0.80500
O138        O  0.91638647  0.64752529  0.37125025    -0.84700
O139        O  0.88516269  0.67929215  0.28825369    -0.79600
O140        O  0.88235662  0.70097727  0.48996699    -0.81300
O141        O  0.81988346  0.62136387  0.37888561    -0.84100
C142        C  0.87798822  0.70820258  0.28787494     0.96700
C143        C  0.92708830  0.67371174  0.38508540     1.04100
O144        O  0.86411216  0.66481701  0.39819372    -1.13100
O145        O  0.86159528  0.60754686  0.46252671    -0.75500
O146        O  0.87803246  0.59693482  0.38108978    -0.79000
O147        O  0.86856300  0.72139749  0.32979502    -0.79700
C148        C  0.87340271  0.58918465  0.43018837     0.95600
O149        O  0.84402390  0.63272503  0.30549620    -0.77600
O150        O  0.85076584  0.66734943  0.51600884    -0.82800
C151        C  0.81495344  0.71028136  0.43404291     0.98200
C152        C  0.86848530  0.68797329  0.52675210     1.04100
O153        O  0.83723766  0.72377651  0.42845709    -0.78500
C154        C  0.82265521  0.62375443  0.32734632     1.02400
Fe155      Fe  0.13405660  0.63098059  0.34131078     1.65800
Fe156      Fe  0.16606823  0.64111666  0.45855332     1.73200
Fe157      Fe  0.12935040  0.70075489  0.40841444     1.54400
O158        O  0.14058112  0.71282055  0.33045114    -0.82200
O159        O  0.14873839  0.66608163  0.52251712    -0.80500
O160        O  0.13015310  0.66842684  0.28659194    -0.84700
O161        O  0.09514111  0.63386562  0.36072491    -0.79600
O162        O  0.16488807  0.71969626  0.43619559    -0.81300
O163        O  0.14188557  0.60226613  0.47213375    -0.84100
C164        C  0.08194363  0.65857234  0.37184205     0.96700
C165        C  0.13531322  0.69810873  0.28686673     1.04100
O166        O  0.14302311  0.65784764  0.40301793    -1.13100
O167        O  0.18857007  0.61601686  0.40221047    -0.75500
O168        O  0.17294210  0.62806768  0.32048273    -0.79000
O169        O  0.09251330  0.68551704  0.38284679    -0.79700
C170        C  0.19156068  0.61945284  0.35103738     0.95600
O171        O  0.13620219  0.58882245  0.38569810    -0.77600
O172        O  0.19130280  0.67824855  0.44801036    -0.82800
C173        C  0.12993754  0.68553251  0.52704338     0.98200
C174        C  0.18720794  0.70796956  0.44695234     1.04100
O175        O  0.11646051  0.69385452  0.48658469    -0.78500
C176        C  0.13648116  0.58168287  0.43597209     1.02400
Fe177      Fe  0.63314610  0.36385405  0.83354673     1.65800
Fe178      Fe  0.66857012  0.35919611  0.94836229     1.73200
Fe179      Fe  0.63592900  0.29388986  0.90133002     1.54400
O180        O  0.59735225  0.30355411  0.87994541    -0.82200
O181        O  0.69600944  0.32432960  0.94305546    -0.80500
O182        O  0.59483574  0.35511119  0.85686945    -0.84700
O183        O  0.63085283  0.32584784  0.78019583    -0.79600
O184        O  0.62514787  0.29881477  0.98113290    -0.81300
O185        O  0.68942868  0.38379410  0.88849104    -0.84100
C186        C  0.63797060  0.29700949  0.77942657     0.96700
C187        C  0.58410856  0.32835973  0.86876387     1.04100
O188        O  0.64588767  0.33872981  0.89475264    -1.13100
O189        O  0.64310890  0.39591035  0.96017744    -0.75500
O190        O  0.63315930  0.40718813  0.87497301    -0.79000
O191        O  0.64558084  0.28301093  0.82201408    -0.79700
C192        C  0.63529261  0.41523520  0.92449962     0.95600
O193        O  0.67119087  0.37192182  0.80861369    -0.77600
O194        O  0.65176990  0.33621293  0.01447341    -0.82800
C195        C  0.69437581  0.29430069  0.93855406     0.98200
C196        C  0.63551263  0.31342865  0.02077644     1.04100
O197        O  0.67331340  0.27995185  0.92473100    -0.78500
C198        C  0.69060705  0.38125772  0.83688398     1.02400
Fe199      Fe  0.37592570  0.37078360  0.83358615     1.65800
Fe200      Fe  0.34131290  0.35947343  0.94759471     1.73200
Fe201      Fe  0.37922071  0.30033722  0.89995326     1.54400
O202        O  0.36926867  0.28858303  0.82153115    -0.82200
O203        O  0.35622112  0.33233627  0.01161516    -0.80500
O204        O  0.37877521  0.33364995  0.77787467    -0.84700
O205        O  0.41478826  0.36628373  0.85278215    -0.79600
O206        O  0.34267086  0.28176636  0.92613274    -0.81300
O207        O  0.36585921  0.39698315  0.96635735    -0.84100
C208        C  0.42783122  0.34139338  0.86343589     0.96700
C209        C  0.37380295  0.30386705  0.77799377     1.04100
O210        O  0.36578708  0.34337566  0.89379885    -1.13100
O211        O  0.32086871  0.38713447  0.89181794    -0.75500
O212        O  0.33734268  0.37526716  0.81096928    -0.79000
O213        O  0.41689474  0.31474535  0.87554355    -0.79700
C214        C  0.31830941  0.38370239  0.84070581     0.95600
O215        O  0.37465899  0.41213652  0.88140825    -0.77600
O216        O  0.31600491  0.32358261  0.93007344    -0.82800
C217        C  0.37587490  0.31438062  0.01768090     0.98200
C218        C  0.31991369  0.29386713  0.93097431     1.04100
O219        O  0.39088873  0.30767265  0.97851989    -0.78500
C220        C  0.37328840  0.41802014  0.93230294     1.02400
Fe221      Fe  0.37775585  0.13727593  0.33211644     1.65800
Fe222      Fe  0.34353735  0.14258242  0.44918678     1.73200
Fe223      Fe  0.37730439  0.20653230  0.40220773     1.54400
O224        O  0.41501954  0.19652331  0.37604292    -0.82200
O225        O  0.31643794  0.17752777  0.44049444    -0.80500
O226        O  0.41669626  0.14522512  0.35169249    -0.84700
O227        O  0.37889872  0.17587453  0.27793098    -0.79600
O228        O  0.38963348  0.20066743  0.48071990    -0.81300
O229        O  0.32281396  0.11643949  0.39157533    -0.84100
C230        C  0.37059241  0.20426846  0.28073881     0.96700
C231        C  0.42785840  0.17162222  0.36374860     1.04100
O232        O  0.36643649  0.16221469  0.39494925    -1.13100
O233        O  0.36918117  0.10606709  0.46179232    -0.75500
O234        O  0.37825432  0.09428137  0.37576193    -0.79000
O235        O  0.36513189  0.21750022  0.32537334    -0.79700
C236        C  0.37677494  0.08656400  0.42585779     0.95600
O237        O  0.33907346  0.12953840  0.31037471    -0.77600
O238        O  0.35953954  0.16734966  0.51452559    -0.82800
C239        C  0.31936808  0.20756600  0.44030959     0.98200
C240        C  0.37683484  0.18902216  0.52038792     1.04100
O241        O  0.34114072  0.22122345  0.43004199    -0.78500
C242        C  0.32030697  0.11975136  0.34042256     1.02400
Fe243      Fe  0.63642884  0.13321892  0.33002788     1.65800
Fe244      Fe  0.67176666  0.14315219  0.44305694     1.73200
Fe245      Fe  0.63198196  0.20216235  0.40123411     1.54400
O246        O  0.63989332  0.21565308  0.32244398    -0.82200
O247        O  0.65586943  0.16565364  0.51041173    -0.80500
O248        O  0.63122654  0.17099564  0.27755714    -0.84700
O249        O  0.59771397  0.13538877  0.35252729    -0.79600
O250        O  0.66807006  0.22192705  0.42413145    -0.81300
O251        O  0.64861765  0.10408792  0.45836432    -0.84100
C252        C  0.58413753  0.15934894  0.36627933     0.96700
C253        C  0.63471391  0.20094754  0.27884054     1.04100
O254        O  0.64656108  0.15978325  0.39162560    -1.13100
O255        O  0.69301905  0.11917374  0.38364962    -0.75500
O256        O  0.67486355  0.13069897  0.30429302    -0.79000
O257        O  0.59443882  0.18604873  0.38012567    -0.79700
C258        C  0.69444957  0.12231207  0.33225548     0.95600
O259        O  0.63950021  0.09079841  0.37310514    -0.77600
O260        O  0.69585592  0.18137104  0.43073668    -0.82800
C261        C  0.63700964  0.18436197  0.51920285     0.98200
C262        C  0.69099628  0.21094544  0.43130348     1.04100
O263        O  0.62250967  0.19440973  0.48140869    -0.78500
C264        C  0.64108069  0.08392270  0.42332277     1.02400
Fe265      Fe  0.87479931  0.36597947  0.65539144     1.65800
Fe266      Fe  0.84151601  0.36348328  0.53817490     1.73200
Fe267      Fe  0.87877847  0.30154017  0.57392838     1.54400
O268        O  0.91596197  0.31370784  0.60360240    -0.82200
O269        O  0.81580892  0.32626301  0.54375870    -0.80500
O270        O  0.91358460  0.36340013  0.63565863    -0.84700
O271        O  0.87758522  0.32453922  0.70241861    -0.79600
O272        O  0.89165628  0.31468035  0.49816735    -0.81300
O273        O  0.82008699  0.38596114  0.59923148    -0.84100
C274        C  0.87128433  0.29548084  0.69461392     0.96700
C275        C  0.92673303  0.33941335  0.62078285     1.04100
O276        O  0.86511132  0.34347893  0.58914260    -1.13100
O277        O  0.86652559  0.40153156  0.53024131    -0.75500
O278        O  0.87379955  0.41083354  0.61798001    -0.79000
O279        O  0.86663847  0.28434220  0.64786838    -0.79700
C280        C  0.87350087  0.41992255  0.56850266     0.95600
O281        O  0.83619156  0.36915648  0.67791402    -0.77600
O282        O  0.85788633  0.34254994  0.46920166    -0.82800
C283        C  0.82045114  0.29698121  0.53623079     0.98200
C284        C  0.87728952  0.32462841  0.46013327     1.04100
O285        O  0.84323499  0.28528055  0.54174883    -0.78500
C286        C  0.81765457  0.38042302  0.64993341     1.02400
Fe287      Fe  0.13189122  0.35882571  0.66226109     1.65800
Fe288      Fe  0.16835037  0.35270236  0.54911847     1.73200
Fe289      Fe  0.13320627  0.28939179  0.59378443     1.54400
O290        O  0.14416560  0.27812995  0.67152584    -0.82200
O291        O  0.15341827  0.32711970  0.48311039    -0.80500
O292        O  0.12904690  0.32040943  0.71506540    -0.84700
O293        O  0.09357818  0.35120124  0.63838635    -0.79600
O294        O  0.16962144  0.27450254  0.56686889    -0.81300
O295        O  0.14301032  0.38923935  0.53376900    -0.84100
C296        C  0.08248853  0.32465844  0.62712268     0.96700
C297        C  0.13661038  0.29167914  0.71466789     1.04100
O298        O  0.14441806  0.33351639  0.60150411    -1.13100
O299        O  0.18792047  0.37930470  0.60829629    -0.75500
O300        O  0.16998596  0.36637339  0.68804346    -0.79000
O301        O  0.09534747  0.29932423  0.61840348    -0.79700
C302        C  0.18925789  0.37660826  0.65984555     0.95600
O303        O  0.13267129  0.40150359  0.61890494    -0.77600
O304        O  0.19507741  0.31783918  0.56103603    -0.82800
C305        C  0.13492341  0.30698922  0.47624101     0.98200
C306        C  0.19175189  0.28790959  0.55898612     1.04100
O307        O  0.12122281  0.29646289  0.51541409    -0.78500
C308        C  0.13487300  0.40893299  0.56892693     1.02400
Fe309      Fe  0.13446356  0.13497517  0.16329637     1.65800
Fe310      Fe  0.17259930  0.13267223  0.05228074     1.73200
Fe311      Fe  0.14341475  0.20058449  0.08724287     1.54400
O312        O  0.10436478  0.19659787  0.11215203    -0.82200
O313        O  0.20297185  0.16364270  0.06532479    -0.80500
O314        O  0.09752004  0.14584193  0.13638027    -0.84700
O315        O  0.13467870  0.17607016  0.21200142    -0.79600
O316        O  0.13091355  0.19079657  0.01054160    -0.81300
O317        O  0.18724393  0.10481681  0.11491193    -0.84100
C318        C  0.14613415  0.20309180  0.20793991     0.96700
C319        C  0.08904700  0.17313486  0.12266770     1.04100
O320        O  0.15002402  0.15621142  0.10082653    -1.13100
O321        O  0.14312834  0.10070706  0.03745031    -0.75500
O322        O  0.13163024  0.09065559  0.12305831    -0.79000
O323        O  0.15556946  0.21320860  0.16346456    -0.79700
C324        C  0.13298723  0.08251122  0.07305377     0.95600
O325        O  0.17153345  0.12502602  0.19154362    -0.77600
O326        O  0.16202406  0.15814848  0.98282900    -0.82800
C327        C  0.20257985  0.19342210  0.05717629     0.98200
C328        C  0.14464468  0.17881293  0.97306899     1.04100
O329        O  0.18152375  0.20945546  0.05897605    -0.78500
C330        C  0.18984487  0.11185756  0.16491815     1.02400
Fe331      Fe  0.87984839  0.14185915  0.15240948     1.65800
Fe332      Fe  0.84636179  0.14994392  0.03723928     1.73200
Fe333      Fe  0.88497201  0.21051837  0.08099399     1.54400
O334        O  0.87535085  0.22430413  0.15884080    -0.82200
O335        O  0.86272094  0.17403305  0.97097303    -0.80500
O336        O  0.88448188  0.18030963  0.20470828    -0.84700
O337        O  0.91845038  0.14504258  0.13130241    -0.79600
O338        O  0.84879779  0.22865091  0.05410979    -0.81300
O339        O  0.87028931  0.11193773  0.02330287    -0.84100
C340        C  0.93239623  0.16925808  0.11889131     0.96700
C341        C  0.88049018  0.21012937  0.20293059     1.04100
O342        O  0.87046557  0.16777221  0.09021155    -1.13100
O343        O  0.82467574  0.12471143  0.09564336    -0.75500
O344        O  0.84128051  0.13817510  0.17586226    -0.79000
O345        O  0.92246742  0.19602060  0.10548007    -0.79700
C346        C  0.82244285  0.12802618  0.14694835     0.95600
O347        O  0.87718051  0.09905434  0.10955678    -0.77600
O348        O  0.82163260  0.18667799  0.04853591    -0.82800
C349        C  0.88223629  0.19256289  0.96364624     0.98200
C350        C  0.82607442  0.21640087  0.04607201     1.04100
O351        O  0.89649513  0.20171373  0.00260589    -0.78500
C352        C  0.87636625  0.09176464  0.05934452     1.02400
C353        C  0.06036962  0.17790963  0.11881784    -0.05800
C354        C  0.05018777  0.20703777  0.10044393    -0.05700
C355        C  0.02316421  0.21133632  0.09622261    -0.23900
C356        C  0.00575049  0.18661391  0.11035022     0.18400
C357        C  0.01581946  0.15727822  0.12867982     0.15600
C358        C  0.04290497  0.15312173  0.13276369    -0.18900
C359        C  0.99865382  0.13245078  0.14276806    -0.20700
C360        C  0.97174450  0.13657063  0.13907680    -0.13300
C361        C  0.96125084  0.16565481  0.12125018     0.03400
C362        C  0.97850258  0.19066522  0.10670415    -0.25400
H363        H  0.06312026  0.22655197  0.08910377     0.08500
H364        H  0.01590332  0.23399762  0.08195216     0.12100
H365        H  0.05034325  0.13050013  0.14688250     0.12000
H366        H  0.00603373  0.10979891  0.15684129     0.11800
H367        H  0.95912117  0.11679840  0.15061439     0.12300
H368        H  0.97080305  0.21319135  0.09279852     0.14300
C369        C  0.13094645  0.29238692  0.42217319    -0.05800
C370        C  0.10717135  0.27697739  0.40975513    -0.05700
C371        C  0.10521263  0.25683328  0.36466452    -0.23900
C372        C  0.12712363  0.25133441  0.33169233     0.18400
C373        C  0.15082769  0.26774469  0.34252464     0.15600
C374        C  0.15248797  0.28842647  0.38724151    -0.18900
C375        C  0.17274040  0.26239619  0.30948693    -0.20700
C376        C  0.17119844  0.24101940  0.26609038    -0.13300
C377        C  0.14792128  0.22414776  0.25569314     0.03400
C378        C  0.12588945  0.22938007  0.28861811    -0.25400
H379        H  0.09035838  0.27951531  0.43624943     0.08500
H380        H  0.08682243  0.24470489  0.35671413     0.12100
H381        H  0.17105734  0.29971688  0.39689460     0.12000
H382        H  0.19106643  0.27472334  0.31721856     0.11800
H383        H  0.18827802  0.23745562  0.24072348     0.12300
H384        H  0.10772966  0.21684826  0.28001053     0.14300
C385        C  0.14197282  0.19210696  0.91778204    -0.05800
C386        C  0.15519931  0.17897605  0.87303507    -0.05700
C387        C  0.15613197  0.19523763  0.82328906    -0.23900
C388        C  0.14439767  0.22518593  0.81808325     0.18400
C389        C  0.13068530  0.23811892  0.86270142     0.15600
C390        C  0.12907440  0.22126071  0.91151350    -0.18900
C391        C  0.11954075  0.26830774  0.85869087    -0.20700
C392        C  0.12205437  0.28580308  0.81088688    -0.13300
C393        C  0.13546129  0.27328969  0.76585927     0.03400
C394        C  0.14651290  0.24276062  0.76961509    -0.25400
H395        H  0.16544348  0.15665286  0.87695481     0.08500
H396        H  0.16673682  0.18491158  0.78952107     0.12100
H397        H  0.11902697  0.23195774  0.94572775     0.12000
H398        H  0.10907715  0.27854951  0.89274725     0.11800
H399        H  0.11314166  0.30906540  0.80902795     0.12300
H400        H  0.15690670  0.23283128  0.73518779     0.14300
C401        C  0.88115237  0.31136819  0.40499019    -0.05800
C402        C  0.87086102  0.32630232  0.35874512    -0.05700
C403        C  0.86991603  0.31021835  0.30881271    -0.23900
C404        C  0.87839823  0.27855771  0.30486999     0.18400
C405        C  0.88917521  0.26368903  0.35104082     0.15600
C406        C  0.89107009  0.28038776  0.40013948    -0.18900
C407        C  0.89684635  0.23182127  0.34824312    -0.20700
C408        C  0.89356182  0.21454577  0.30035878    -0.13300
C409        C  0.88286940  0.22884669  0.25388420     0.03400
C410        C  0.87560359  0.26115302  0.25626648    -0.25400
H411        H  0.86282254  0.35001069  0.36164420     0.08500
H412        H  0.86157325  0.32206295  0.27390843     0.12100
H413        H  0.89851055  0.26827142  0.43572409     0.12000
H414        H  0.90504086  0.22006609  0.38340845     0.11800
H415        H  0.89964392  0.18991126  0.29969509     0.12300
H416        H  0.86739748  0.27256146  0.22077543     0.14300
C417        C  0.88687459  0.20701918  0.90942265    -0.05800
C418        C  0.90972959  0.22511930  0.89958754    -0.05700
C419        C  0.91148528  0.24553599  0.85479164    -0.23900
C420        C  0.89035944  0.24838919  0.81914034     0.18400
C421        C  0.86791767  0.22887750  0.82668219     0.15600
C422        C  0.86642625  0.20810991  0.87141397    -0.18900
C423        C  0.84692694  0.23136596  0.79050039    -0.20700
C424        C  0.84804921  0.25321356  0.74762832    -0.13300
C425        C  0.86988026  0.27339290  0.74102091     0.03400
C426        C  0.89107274  0.27080990  0.77670478    -0.25400
H427        H  0.92579246  0.22472308  0.92810092     0.08500
H428        H  0.92898014  0.25997253  0.84921624     0.12100
H429        H  0.84860621  0.19450541  0.87856510     0.12000
H430        H  0.82960881  0.21654673  0.79550954     0.11800
H431        H  0.83171267  0.25467640  0.71990255     0.12300
H432        H  0.90819831  0.28590147  0.77087346     0.14300
C433        C  0.05359052  0.32259686  0.62344297    -0.05800
C434        C  0.04148473  0.29424852  0.60526645    -0.05700
C435        C  0.01435724  0.29194680  0.60068807    -0.23900
C436        C  0.99869566  0.31790047  0.61433288     0.18400
C437        C  0.01056761  0.34651423  0.63263172     0.15600
C438        C  0.03789723  0.34872899  0.63696249    -0.18900
C439        C  0.99488718  0.37244075  0.64637509    -0.20700
C440        C  0.96773481  0.37003632  0.64228332    -0.13300
C441        C  0.95563852  0.34165875  0.62425955     0.03400
C442        C  0.97137140  0.31565635  0.61014239    -0.25400
H443        H  0.05300175  0.27373522  0.59418345     0.08500
H444        H  0.00563865  0.26983733  0.58649882     0.12100
H445        H  0.04688673  0.37073554  0.65093732     0.12000
H446        H  0.00360672  0.39457458  0.66044562     0.11800
H447        H  0.95619952  0.39052600  0.65340216     0.12300
H448        H  0.96240868  0.29363100  0.59617597     0.14300
C449        C  0.72009505  0.11716196  0.30517045    -0.05800
C450        C  0.74300832  0.11610128  0.33660207    -0.05700
C451        C  0.76763129  0.11578640  0.31187938    -0.23900
C452        C  0.76991718  0.11639155  0.25513218     0.18400
C453        C  0.74708604  0.11571518  0.22296107     0.15600
C454        C  0.72232409  0.11614046  0.24812048    -0.18900
C455        C  0.74944951  0.11586829  0.16615701    -0.20700
C456        C  0.77408440  0.11829078  0.14153419    -0.13300
C457        C  0.79686684  0.12075412  0.17318678     0.03400
C458        C  0.79461237  0.11891326  0.23013280    -0.25400
H459        H  0.74199554  0.11685021  0.38056700     0.08500
H460        H  0.78490256  0.11603870  0.33722007     0.12100
H461        H  0.70488385  0.11673362  0.22330183     0.12000
H462        H  0.73220966  0.11507750  0.14075244     0.11800
H463        H  0.77518462  0.11956953  0.09760784     0.12300
H464        H  0.81198697  0.12047900  0.25509593     0.14300
C465        C  0.71292167  0.23275188  0.44458037    -0.05800
C466        C  0.70853305  0.26487207  0.45743121    -0.05700
C467        C  0.72876817  0.28387076  0.47816502    -0.23900
C468        C  0.75360609  0.27094766  0.48666665     0.18400
C469        C  0.75835328  0.23894897  0.47252278     0.15600
C470        C  0.73815291  0.22026382  0.45100713    -0.18900
C471        C  0.78308322  0.22588114  0.48118828    -0.20700
C472        C  0.80309669  0.24444926  0.50350604    -0.13300
C473        C  0.79870489  0.27639780  0.51746242     0.03400
C474        C  0.77376023  0.28942422  0.50917806    -0.25400
H475        H  0.68927514  0.27501069  0.45325606     0.08500
H476        H  0.72484489  0.30843683  0.48867421     0.12100
H477        H  0.74193863  0.19555252  0.44116495     0.12000
H478        H  0.78696641  0.20131798  0.47057744     0.11800
H479        H  0.82213208  0.23391739  0.50897576     0.12300
H480        H  0.77005253  0.31408135  0.51950802     0.14300
C481        C  0.45688289  0.17409640  0.36422065    -0.05800
C482        C  0.46903377  0.20392444  0.37306029    -0.05700
C483        C  0.49618629  0.20685241  0.37552103    -0.23900
C484        C  0.51191288  0.18002759  0.36925772     0.18400
C485        C  0.50010691  0.14990193  0.36002777     0.15600
C486        C  0.47267827  0.14709269  0.35747939    -0.18900
C487        C  0.51597771  0.12313110  0.35364732    -0.20700
C488        C  0.54320469  0.12620802  0.35609626    -0.13300
C489        C  0.55517878  0.15610255  0.36522207     0.03400
C490        C  0.53925446  0.18292972  0.37196260    -0.25400
H491        H  0.45752724  0.22521243  0.37833213     0.08500
H492        H  0.50487972  0.23014812  0.38250110     0.12100
H493        H  0.46369230  0.12392312  0.35080104     0.12000
H494        H  0.50734980  0.09981126  0.34659918     0.11800
H495        H  0.55489775  0.10507546  0.35077928     0.12300
H496        H  0.54809920  0.20617089  0.37875932     0.14300
C497        C  0.21542863  0.10609542  0.19123841    -0.05800
C498        C  0.23775474  0.10128017  0.15870018    -0.05700
C499        C  0.26271458  0.10128214  0.18152745    -0.23900
C500        C  0.26592189  0.10581012  0.23751647     0.18400
C501        C  0.24357134  0.10896143  0.27107943     0.15600
C502        C  0.21849945  0.10922501  0.24778427    -0.18900
C503        C  0.24674082  0.11292908  0.32718818    -0.20700
C504        C  0.27175246  0.11488635  0.34958501    -0.13300
C505        C  0.29419552  0.11327215  0.31636881     0.03400
C506        C  0.29108238  0.10823661  0.26023769    -0.25400
H507        H  0.23608371  0.09901134  0.11499522     0.08500
H508        H  0.27955506  0.09861259  0.15512904     0.12100
H509        H  0.20151457  0.11292834  0.27341563     0.12000
H510        H  0.22988377  0.11525746  0.35365125     0.11800
H511        H  0.27348983  0.11899496  0.39289248     0.12300
H512        H  0.30816730  0.10686593  0.23416623     0.14300
C513        C  0.29689246  0.22716295  0.45596815    -0.05800
C514        C  0.29806674  0.26052422  0.45143759    -0.05700
C515        C  0.27783647  0.27908612  0.47187121    -0.23900
C516        C  0.25628442  0.26453547  0.49747096     0.18400
C517        C  0.25478230  0.23100749  0.50155782     0.15600
C518        C  0.27495837  0.21257029  0.48043209    -0.18900
C519        C  0.23322627  0.21644615  0.52711478    -0.20700
C520        C  0.21299946  0.23498218  0.54760406    -0.13300
C521        C  0.21419664  0.26832376  0.54322353     0.03400
C522        C  0.23610993  0.28295421  0.51867482    -0.25400
H523        H  0.31480776  0.27230110  0.43290170     0.08500
H524        H  0.27919160  0.30479144  0.46825577     0.12100
H525        H  0.27388497  0.18686469  0.48460303     0.12000
H526        H  0.23187352  0.19074007  0.53068893     0.11800
H527        H  0.19625893  0.22321502  0.56615689     0.12300
H528        H  0.23715033  0.30866131  0.51447233     0.14300
C529        C  0.37410972  0.28635218  0.72560324    -0.05800
C530        C  0.37516172  0.30328873  0.67630789    -0.05700
C531        C  0.37715515  0.28724895  0.62684665    -0.23900
C532        C  0.37813434  0.25391376  0.62559818     0.18400
C533        C  0.37656921  0.23640293  0.67457947     0.15600
C534        C  0.37461953  0.25273780  0.72434940    -0.18900
C535        C  0.37673664  0.20290571  0.67268428    -0.20700
C536        C  0.37778753  0.18700167  0.62259757    -0.13300
C537        C  0.37964356  0.20438583  0.57394992     0.03400
C538        C  0.38012074  0.23784289  0.57592481    -0.25400
H539        H  0.37464865  0.32908091  0.67592528     0.08500
H540        H  0.37800232  0.30095816  0.58951492     0.12100
H541        H  0.37382944  0.23930647  0.76198430     0.12000
H542        H  0.37541877  0.18904407  0.70978726     0.11800
H543        H  0.37684877  0.16121054  0.62174269     0.12300
H544        H  0.38065960  0.25143146  0.53838988     0.14300
C545        C  0.37993667  0.29783992  0.07002351    -0.05800
C546        C  0.40493820  0.28738152  0.08472977    -0.05700
C547        C  0.40815894  0.26664602  0.12871127    -0.23900
C548        C  0.38636231  0.25548524  0.15813267     0.18400
C549        C  0.36115272  0.26623752  0.14413815     0.15600
C550        C  0.35814994  0.28757463  0.10063824    -0.18900
C551        C  0.33930638  0.25506442  0.17336602    -0.20700
C552        C  0.34244356  0.23400919  0.21682906    -0.13300
C553        C  0.36735078  0.22322451  0.23097152     0.03400
C554        C  0.38928481  0.23380134  0.20128784    -0.25400
H555        H  0.42194630  0.29462917  0.06123972     0.08500
H556        H  0.42762698  0.25875915  0.13889696     0.12100
H557        H  0.33870714  0.29482086  0.08879133     0.12000
H558        H  0.31984230  0.26292856  0.16307524     0.11800
H559        H  0.32542505  0.22633975  0.23992228     0.12300
H560        H  0.40859095  0.22593936  0.21290687     0.14300
C561        C  0.22719261  0.20928822  0.04091346    -0.05800
C562        C  0.25138183  0.19777432  0.05880743    -0.05700
C563        C  0.27477142  0.21082580  0.03870112    -0.23900
C564        C  0.27429288  0.23506755  0.99943917     0.18400
C565        C  0.24994641  0.24644660  0.98093382     0.15600
C566        C  0.22664331  0.23381540  0.00228108    -0.18900
C567        C  0.24923607  0.27035575  0.94137149    -0.20700
C568        C  0.27239709  0.28394695  0.92201362    -0.13300
C569        C  0.29670891  0.27378157  0.94155481     0.03400
C570        C  0.29762724  0.24869649  0.97928260    -0.25400
H571        H  0.25215945  0.17854969  0.08816002     0.08500
H572        H  0.29318527  0.20178143  0.05345019     0.12100
H573        H  0.20804522  0.24229218  0.98738014     0.12000
H574        H  0.23076295  0.27916626  0.92649128     0.11800
H575        H  0.27130529  0.30346618  0.89325953     0.12300
H576        H  0.31628805  0.24122677  0.99534863     0.14300
C577        C  0.29215483  0.38820369  0.81588434    -0.05800
C578        C  0.26950826  0.38552584  0.84833176    -0.05700
C579        C  0.24467080  0.38469395  0.82474823    -0.23900
C580        C  0.24189761  0.38676235  0.76817221     0.18400
C581        C  0.26441513  0.39105143  0.73533079     0.15600
C582        C  0.28936291  0.39162983  0.75927838    -0.18900
C583        C  0.26166288  0.39353846  0.67886043    -0.20700
C584        C  0.23704249  0.39040345  0.65492006    -0.13300
C585        C  0.21454760  0.38454654  0.68679557     0.03400
C586        C  0.21713269  0.38348949  0.74378093    -0.25400
H587        H  0.27101472  0.38259039  0.89194947     0.08500
H588        H  0.22767270  0.38154356  0.85069930     0.12100
H589        H  0.30660548  0.39377210  0.73371303     0.12000
H590        H  0.27865113  0.39706369  0.65300462     0.11800
H591        H  0.23581630  0.39139057  0.61101497     0.12300
H592        H  0.20006004  0.37910579  0.76904594     0.14300
C593        C  0.71779192  0.27555617  0.95260049    -0.05800
C594        C  0.71781699  0.24231778  0.94609815    -0.05700
C595        C  0.73908244  0.22447206  0.96343370    -0.23900
C596        C  0.76065122  0.23952781  0.98782275     0.18400
C597        C  0.76111426  0.27290958  0.99413226     0.15600
C598        C  0.73972708  0.29072205  0.97635097    -0.18900
C599        C  0.78289160  0.28779990  0.01839958    -0.20700
C600        C  0.80412919  0.26969517  0.03595185    -0.13300
C601        C  0.80370978  0.23643243  0.03009371     0.03400
C602        C  0.78176470  0.22162751  0.00595882    -0.25400
H603        H  0.70124364  0.23002239  0.92822548     0.08500
H604        H  0.73854800  0.19882954  0.95823539     0.12100
H605        H  0.74000314  0.31633342  0.98205994     0.12000
H606        H  0.78354086  0.31343510  0.02356562     0.11800
H607        H  0.82079513  0.28164710  0.05410552     0.12300
H608        H  0.78118990  0.19600546  0.00031826     0.14300
C609        C  0.79215550  0.38639456  0.67655816    -0.05800
C610        C  0.76924864  0.38763418  0.64524608    -0.05700
C611        C  0.74471897  0.38911665  0.67025680    -0.23900
C612        C  0.74263231  0.38960925  0.72707356     0.18400
C613        C  0.76558439  0.38993404  0.75888369     0.15600
C614        C  0.79016471  0.38823798  0.73349548    -0.18900
C615        C  0.76353747  0.39079705  0.81564878    -0.20700
C616        C  0.73901973  0.38982127  0.84076129    -0.13300
C617        C  0.71602292  0.38782220  0.80964946     0.03400
C618        C  0.71801350  0.38854918  0.75260105    -0.25400
H619        H  0.77020472  0.38614008  0.60132885     0.08500
H620        H  0.72736244  0.38901776  0.64517399     0.12100
H621        H  0.80767584  0.38750674  0.75810309     0.12000
H622        H  0.78090818  0.39125878  0.84069289     0.11800
H623        H  0.73816849  0.38920370  0.88474925     0.12300
H624        H  0.70049666  0.38711730  0.72805489     0.14300
C625        C  0.63387496  0.19803320  0.57414610    -0.05800
C626        C  0.64189172  0.18150590  0.62078507    -0.05700
C627        C  0.64349283  0.19711722  0.67107150    -0.23900
C628        C  0.63797502  0.22976945  0.67503399     0.18400
C629        C  0.62966263  0.24634566  0.62828060     0.15600
C630        C  0.62711308  0.23026727  0.57869475    -0.18900
C631        C  0.62491595  0.27906426  0.63120929    -0.20700
C632        C  0.62828960  0.29536850  0.68002560    -0.13300
C633        C  0.63628331  0.27931876  0.72726567     0.03400
C634        C  0.64108808  0.24632259  0.72443348    -0.25400
H635        H  0.64754538  0.15676247  0.61800248     0.08500
H636        H  0.64992224  0.18395133  0.70638264     0.12100
H637        H  0.62157209  0.24348571  0.54270788     0.12000
H638        H  0.61874753  0.29214402  0.59557882     0.11800
H639        H  0.62437170  0.32067218  0.68076105     0.12300
H640        H  0.64718098  0.23355573  0.76045303     0.14300
C641        C  0.63071880  0.30071510  0.07599063    -0.05800
C642        C  0.63980806  0.31693298  0.12233479    -0.05700
C643        C  0.64108912  0.30126786  0.17252174    -0.23900
C644        C  0.63397674  0.26894436  0.17665640     0.18400
C645        C  0.62384705  0.25299212  0.13066287     0.15600
C646        C  0.62157548  0.26917780  0.08133575    -0.18900
C647        C  0.61743720  0.22055999  0.13369739    -0.20700
C648        C  0.62147886  0.20376250  0.18163577    -0.13300
C649        C  0.63163558  0.21914730  0.22783465     0.03400
C650        C  0.63756527  0.25198047  0.22526464    -0.25400
H651        H  0.64702603  0.34122704  0.11925331     0.08500
H652        H  0.64879312  0.31396897  0.20738685     0.12100
H653        H  0.61470809  0.25620044  0.04596947     0.12000
H654        H  0.60974203  0.20800946  0.09864809     0.11800
H655        H  0.61642225  0.17863985  0.18253709     0.12300
H656        H  0.64532920  0.26417678  0.26061314     0.14300
C657        C  0.55509244  0.32557639  0.86947761    -0.05800
C658        C  0.54280283  0.29635355  0.88266384    -0.05700
C659        C  0.51555303  0.29348010  0.88371261    -0.23900
C660        C  0.49994015  0.31976323  0.87163483     0.18400
C661        C  0.51200382  0.34918154  0.85800758     0.15600
C662        C  0.53941416  0.35191056  0.85696164    -0.18900
C663        C  0.49644151  0.37546885  0.84586128    -0.20700
C664        C  0.46921563  0.37276904  0.84755952    -0.13300
C665        C  0.45686600  0.34369933  0.86138054     0.03400
C666        C  0.47249940  0.31717071  0.87318996    -0.25400
H667        H  0.55425700  0.27557970  0.89236031     0.08500
H668        H  0.50669899  0.27070061  0.89416102     0.12100
H669        H  0.54848520  0.37458169  0.84656050     0.12000
H670        H  0.50532364  0.39820286  0.83522443     0.11800
H671        H  0.45781909  0.39362784  0.83810588     0.12300
H672        H  0.46337996  0.29456393  0.88381493     0.14300
C673        C  0.13208161  0.54794624  0.45177374    -0.05800
C674        C  0.13392313  0.52387936  0.41215057    -0.05700
C675        C  0.13303579  0.49177637  0.42686646    -0.23900
C676        C  0.13014364  0.48303615  0.48149859     0.18400
C677        C  0.12710638  0.50689582  0.52151509     0.15600
C678        C  0.12811888  0.53921514  0.50645028    -0.18900
C679        C  0.12401743  0.49800283  0.57611758    -0.20700
C680        C  0.12518598  0.46592351  0.59120222    -0.13300
C681        C  0.12949008  0.44211969  0.55197171     0.03400
C682        C  0.13122065  0.45088755  0.49689181    -0.25400
H683        H  0.13704184  0.52983187  0.36975252     0.08500
H684        H  0.13529071  0.47380310  0.39563038     0.12100
H685        H  0.12653834  0.55749005  0.53738131     0.12000
H686        H  0.12146695  0.51590940  0.60735392     0.11800
H687        H  0.12372369  0.45991374  0.63393536     0.12300
H688        H  0.13440473  0.43284801  0.46610722     0.14300
C689        C  0.88078580  0.55720870  0.44999297    -0.05800
C690        C  0.88875398  0.53352064  0.41330734    -0.05700
C691        C  0.89177086  0.50209233  0.43073645    -0.23900
C692        C  0.88679455  0.49385251  0.48507205     0.18400
C693        C  0.88056715  0.51785082  0.52306376     0.15600
C694        C  0.87780789  0.54938601  0.50538020    -0.18900
C695        C  0.87575143  0.50961327  0.57750088    -0.20700
C696        C  0.87525119  0.47762456  0.59332129    -0.13300
C697        C  0.87955053  0.45346816  0.55491059     0.03400
C698        C  0.88641139  0.46184556  0.50132066    -0.25400
H699        H  0.89150865  0.53895160  0.37060722     0.08500
H700        H  0.89688877  0.48400986  0.40124231     0.12100
H701        H  0.87209397  0.56750155  0.53436117     0.12000
H702        H  0.87117887  0.52776712  0.60726219     0.11800
H703        H  0.86996604  0.47173203  0.63484255     0.12300
H704        H  0.89007811  0.44336081  0.47154973     0.14300
C705        C  0.95582146  0.67497008  0.38984217    -0.05800
C706        C  0.96838598  0.70133507  0.41386785    -0.05700
C707        C  0.99561791  0.70300851  0.41623736    -0.23900
C708        C  0.01070753  0.67847075  0.39421462     0.18400
C709        C  0.99825150  0.65165254  0.37070624     0.15600
C710        C  0.97094801  0.64999664  0.36893894    -0.18900
C711        C  0.01330567  0.62710813  0.34867034    -0.20700
C712        C  0.04052639  0.62926661  0.34934425    -0.13300
C713        C  0.05313888  0.65605755  0.37191079     0.03400
C714        C  0.03803490  0.68048730  0.39471684    -0.25400
H715        H  0.95716746  0.72076337  0.43063016     0.08500
H716        H  0.00487115  0.72365791  0.43467932     0.12100
H717        H  0.96153026  0.62953036  0.35020734     0.12000
H718        H  0.00403697  0.60636925  0.33054500     0.11800
H719        H  0.05169819  0.61009397  0.33160788     0.12300
H720        H  0.04750511  0.70112699  0.41277221     0.14300
C721        C  0.88081625  0.05833276  0.04301842    -0.05800
C722        C  0.88133888  0.03416202  0.08262109    -0.05700
C723        C  0.88167569  0.00214511  0.06741317    -0.23900
C724        C  0.88152582  0.99371672  0.01233271     0.18400
C725        C  0.88230189  0.01778122  0.97213451     0.15600
C726        C  0.88205539  0.04992771  0.98770697    -0.18900
C727        C  0.88225330  0.00926352  0.91703646    -0.20700
C728        C  0.88022929  0.97724453  0.90191121    -0.13300
C729        C  0.87821042  0.95321726  0.94164114     0.03400
C730        C  0.87959247  0.96165896  0.99687072    -0.25400
H731        H  0.88042281  0.03991813  0.12549231     0.08500
H732        H  0.88123212  0.98397647  0.09874301     0.12100
H733        H  0.88183038  0.06830885  0.95672554     0.12000
H734        H  0.88299488  0.02739300  0.88565989     0.11800
H735        H  0.87927101  0.97141158  0.85908190     0.12300
H736        H  0.87827544  0.94337903  0.02796409     0.14300
C737        C  0.87834164  0.78006146  0.73784055    -0.05800
C738        C  0.89159590  0.79331827  0.69288908    -0.05700
C739        C  0.89441035  0.77616952  0.64488763    -0.23900
C740        C  0.88360114  0.74554377  0.64024975     0.18400
C741        C  0.87038129  0.73153269  0.68490131     0.15600
C742        C  0.86816371  0.74872989  0.73396284    -0.18900
C743        C  0.85892475  0.70111738  0.67875402    -0.20700
C744        C  0.85928227  0.68573454  0.62800278    -0.13300
C745        C  0.87180360  0.70010900  0.58309536     0.03400
C746        C  0.88480775  0.72949161  0.59055012    -0.25400
H747        H  0.89999396  0.81709317  0.69480867     0.08500
H748        H  0.90457754  0.78720101  0.61088913     0.12100
H749        H  0.85796937  0.73815391  0.76833630     0.12000
H750        H  0.84876304  0.68984293  0.71250070     0.11800
H751        H  0.84909752  0.66314394  0.62347342     0.12300
H752        H  0.89444295  0.74115813  0.55648001     0.14300
C753        C  0.88151735  0.72711765  0.23723584    -0.05800
C754        C  0.89633217  0.71474994  0.19396039    -0.05700
C755        C  0.90022976  0.73229163  0.14632986    -0.23900
C756        C  0.88915288  0.76247404  0.14059366     0.18400
C757        C  0.87446483  0.77545803  0.18384297     0.15600
C758        C  0.87092511  0.75784092  0.23209792    -0.18900
C759        C  0.86294830  0.80541403  0.17735651    -0.20700
C760        C  0.86474737  0.82147299  0.12752327    -0.13300
C761        C  0.87854922  0.80819398  0.08357583     0.03400
C762        C  0.89153936  0.77915928  0.09132352    -0.25400
H763        H  0.90505085  0.69141713  0.19690291     0.08500
H764        H  0.91155314  0.72197888  0.11356786     0.12100
H765        H  0.85954991  0.76779940  0.26511996     0.12000
H766        H  0.85166408  0.81583332  0.21006802     0.11800
H767        H  0.85442146  0.84367934  0.12269181     0.12300
H768        H  0.90197414  0.76832893  0.05775540     0.14300
C769        C  0.12629605  0.94658179  0.94923675    -0.05800
C770        C  0.12638712  0.97137097  0.91079253    -0.05700
C771        C  0.12469223  0.00308983  0.92738061    -0.23900
C772        C  0.12282835  0.01062695  0.98274884     0.18400
C773        C  0.12097177  0.98592696  0.02163835     0.15600
C774        C  0.12262837  0.95400928  0.00463267    -0.18900
C775        C  0.11900447  0.99369330  0.07703034    -0.20700
C776        C  0.12095587  0.02550962  0.09393783    -0.13300
C777        C  0.12478516  0.05004942  0.05568817     0.03400
C778        C  0.12441134  0.04242682  0.99994017    -0.25400
H779        H  0.12920513  0.96639064  0.86798375     0.08500
H780        H  0.12598432  0.02178001  0.89703281     0.12100
H781        H  0.12232598  0.93510550  0.03469750     0.12000
H782        H  0.11723516  0.97508930  0.10743136     0.11800
H783        H  0.12098539  0.03068227  0.13706080     0.12300
H784        H  0.12698281  0.06109254  0.96982510     0.14300
C785        C  0.12554901  0.70232644  0.57929256    -0.05800
C786        C  0.10260941  0.71991328  0.58772086    -0.05700
C787        C  0.10097093  0.74207886  0.63007702    -0.23900
C788        C  0.12235337  0.74737624  0.66450743     0.18400
C789        C  0.14513319  0.72897044  0.65765893     0.15600
C790        C  0.14645948  0.70637519  0.61565149    -0.18900
C791        C  0.16651257  0.73401359  0.69211388    -0.20700
C792        C  0.16520749  0.75665814  0.73355343    -0.13300
C793        C  0.14275322  0.77516020  0.74068016     0.03400
C794        C  0.12140804  0.77068462  0.70564312    -0.25400
H795        H  0.08629385  0.71750452  0.56006618     0.08500
H796        H  0.08326448  0.75573954  0.63487639     0.12100
H797        H  0.16444492  0.69346077  0.60919523     0.12000
H798        H  0.18414561  0.72019930  0.68740787     0.11800
H799        H  0.18170671  0.75954039  0.76063628     0.12300
H800        H  0.10381656  0.78442708  0.71173917     0.14300
C801        C  0.13750162  0.79844968  0.08254093    -0.05800
C802        C  0.14858270  0.81311717  0.12848748    -0.05700
C803        C  0.14985086  0.79680229  0.17816375    -0.23900
C804        C  0.14065550  0.76522736  0.18244591     0.18400
C805        C  0.12945360  0.75033926  0.13650082     0.15600
C806        C  0.12756765  0.76714004  0.08735296    -0.18900
C807        C  0.12089335  0.71857220  0.13995307    -0.20700
C808        C  0.12335355  0.70161874  0.18847097    -0.13300
C809        C  0.13420052  0.71610909  0.23486405     0.03400
C810        C  0.14277136  0.74812010  0.23150034    -0.25400
H811        H  0.15668338  0.83701614  0.12573773     0.08500
H812        H  0.15859945  0.80861544  0.21286489     0.12100
H813        H  0.11951321  0.75517841  0.05203660     0.12000
H814        H  0.11237204  0.70675368  0.10500169     0.11800
H815        H  0.11638113  0.67716908  0.18979139     0.12300
H816        H  0.15119245  0.75966284  0.26682902     0.14300
C817        C  0.95694649  0.84387600  0.87055146    -0.05800
C818        C  0.96924455  0.87341451  0.85972310    -0.05700
C819        C  0.99648596  0.87618166  0.85806332    -0.23900
C820        C  0.01207944  0.84946228  0.86707443     0.18400
C821        C  0.00002848  0.81963383  0.87778434     0.15600
C822        C  0.97260900  0.81701837  0.87951330    -0.18900
C823        C  0.01562103  0.79290401  0.88670531    -0.20700
C824        C  0.04286470  0.79569725  0.88548886    -0.13300
C825        C  0.05516222  0.82526678  0.87515824     0.03400
C826        C  0.03949968  0.85209977  0.86572889    -0.25400
H827        H  0.95779614  0.89455641  0.85264848     0.08500
H828        H  0.00535038  0.89925809  0.84977850     0.12100
H829        H  0.96351484  0.79404724  0.88764766     0.12000
H830        H  0.00674903  0.76981377  0.89482148     0.11800
H831        H  0.05431600  0.77457387  0.89267800     0.12300
H832        H  0.04858926  0.87509014  0.85771183     0.14300
C833        C  0.37893636  0.45092989  0.95169178    -0.05800
C834        C  0.38157668  0.47597154  0.91394028    -0.05700
C835        C  0.38359681  0.50755874  0.93135281    -0.23900
C836        C  0.38310762  0.51482604  0.98692827     0.18400
C837        C  0.38163651  0.48992889  0.02551822     0.15600
C838        C  0.37959173  0.45811603  0.00769588    -0.18900
C839        C  0.38125055  0.49743025  0.08116526    -0.20700
C840        C  0.38098515  0.52929034  0.09825541    -0.13300
C841        C  0.38108594  0.55419827  0.05999944     0.03400
C842        C  0.38295928  0.54665247  0.00434887    -0.25400
H843        H  0.38114462  0.47129263  0.87066210     0.08500
H844        H  0.38481482  0.52638310  0.90123686     0.12100
H845        H  0.37768768  0.43911919  0.03737321     0.12000
H846        H  0.38025598  0.47867491  0.11142006     0.11800
H847        H  0.37938264  0.53437564  0.14128952     0.12300
H848        H  0.38316338  0.56557289  0.97430013     0.14300
C849        C  0.28791348  0.71719374  0.04790627    -0.05800
C850        C  0.26358166  0.70460886  0.06441829    -0.05700
C851        C  0.24051062  0.71691332  0.04367467    -0.23900
C852        C  0.24147701  0.74179593  0.00579790     0.18400
C853        C  0.26590097  0.75476389  0.98928166     0.15600
C854        C  0.28896192  0.74252457  0.01076863    -0.18900
C855        C  0.26683610  0.77976626  0.95158355    -0.20700
C856        C  0.24371475  0.79279086  0.93234972    -0.13300
C857        C  0.21941810  0.78056111  0.94978596     0.03400
C858        C  0.21839532  0.75445593  0.98522620    -0.25400
H859        H  0.26244149  0.68482931  0.09270040     0.08500
H860        H  0.22196045  0.70680817  0.05687671     0.12100
H861        H  0.30770528  0.75187806  0.99704410     0.12000
H862        H  0.28537951  0.78981324  0.93821404     0.11800
H863        H  0.24477325  0.81305972  0.90507474     0.12300
H864        H  0.19966069  0.74530579  0.99939879     0.14300
C865        C  0.21777852  0.61434100  0.32684429    -0.05800
C866        C  0.24026751  0.61680293  0.35937747    -0.05700
C867        C  0.26522352  0.61646550  0.33590699    -0.23900
C868        C  0.26819547  0.61336937  0.27945977     0.18400
C869        C  0.24574275  0.60934710  0.24673140     0.15600
C870        C  0.22074065  0.60999249  0.27051091    -0.18900
C871        C  0.24860998  0.60576878  0.19046081    -0.20700
C872        C  0.27336421  0.60733095  0.16649934    -0.13300
C873        C  0.29583353  0.61276315  0.19815461     0.03400
C874        C  0.29310593  0.61522676  0.25498135    -0.25400
H875        H  0.23856978  0.62035645  0.40285357     0.08500
H876        H  0.28216297  0.61940177  0.36177686     0.12100
H877        H  0.20358880  0.60791347  0.24497715     0.12000
H878        H  0.23164241  0.60253086  0.16475635     0.11800
H879        H  0.27475909  0.60557335  0.12266130     0.12300
H880        H  0.31021061  0.61940785  0.27993258     0.14300
C881        C  0.63042289  0.44862185  0.94081440    -0.05800
C882        C  0.63086103  0.47318156  0.90186284    -0.05700
C883        C  0.63111828  0.50514417  0.91804379    -0.23900
C884        C  0.63086073  0.51307091  0.97344744     0.18400
C885        C  0.62889196  0.48856223  0.01272664     0.15600
C886        C  0.62860096  0.45659631  0.99620117    -0.18900
C887        C  0.62833401  0.49634483  0.06808045    -0.20700
C888        C  0.63076904  0.52804005  0.08459269    -0.13300
C889        C  0.63398238  0.55255653  0.04610736     0.03400
C890        C  0.63345529  0.54492894  0.99036061    -0.25400
H891        H  0.63232175  0.46771817  0.85894035     0.08500
H892        H  0.63240468  0.52360961  0.88730391     0.12100
H893        H  0.62806037  0.43791225  0.02666823     0.12000
H894        H  0.62669068  0.47784216  0.09869570     0.11800
H895        H  0.63107057  0.53322667  0.12770966     0.12300
H896        H  0.63565690  0.56364488  0.96022800     0.14300
C897        C  0.71330188  0.73237454  0.04449129    -0.05800
C898        C  0.71079298  0.76556853  0.04082402    -0.05700
C899        C  0.73128494  0.78424990  0.01998172    -0.23900
C900        C  0.75441625  0.76993827  0.00184316     0.18400
C901        C  0.75727697  0.73665719  0.00596835     0.15600
C902        C  0.73686558  0.71818918  0.02770823    -0.18900
C903        C  0.78036381  0.72233069  0.98762820    -0.20700
C904        C  0.80068993  0.74095963  0.96598396    -0.13300
C905        C  0.79813960  0.77415097  0.96205587     0.03400
C906        C  0.77474302  0.78838458  0.97972067    -0.25400
H907        H  0.69285269  0.77700584  0.05316476     0.08500
H908        H  0.72888160  0.80982281  0.01720757     0.12100
H909        H  0.73907378  0.69254885  0.02968045     0.12000
H910        H  0.78277666  0.69675959  0.99043403     0.11800
H911        H  0.81851538  0.72945678  0.95310682     0.12300
H912        H  0.77246311  0.81400509  0.97747261     0.14300
C913        C  0.79999581  0.61738811  0.29109955    -0.05800
C914        C  0.80371346  0.61563960  0.23440736    -0.05700
C915        C  0.78238734  0.61437908  0.19910291    -0.23900
C916        C  0.75681413  0.61512019  0.21961230     0.18400
C917        C  0.75276722  0.61591920  0.27651141     0.15600
C918        C  0.77432188  0.61674081  0.31187693    -0.18900
C919        C  0.72722424  0.61711058  0.29704158    -0.20700
C920        C  0.70596873  0.61857526  0.26168404    -0.13300
C921        C  0.70969827  0.61867610  0.20490291     0.03400
C922        C  0.73529217  0.61624415  0.18418370    -0.25400
H923        H  0.82320837  0.61611494  0.21709073     0.08500
H924        H  0.78592835  0.61373440  0.15565509     0.12100
H925        H  0.77106498  0.61844641  0.35535150     0.12000
H926        H  0.72369449  0.61773312  0.34049629     0.11800
H927        H  0.68655072  0.62038941  0.27900932     0.12300
H928        H  0.73857703  0.61655681  0.14061923     0.14300
C929        C  0.55150293  0.66162202  0.10971318    -0.05800
C930        C  0.53932859  0.63145993  0.11411261    -0.05700
C931        C  0.51221763  0.62848936  0.11756834    -0.23900
C932        C  0.49657360  0.65560212  0.11672147     0.18400
C933        C  0.50837399  0.68608514  0.11148833     0.15600
C934        C  0.53578410  0.68894190  0.10789213    -0.18900
C935        C  0.49251443  0.71312664  0.11043454    -0.20700
C936        C  0.46530696  0.70995803  0.11443944    -0.13300
C937        C  0.45341420  0.67970436  0.11999923     0.03400
C938        C  0.46931016  0.65261951  0.12115753    -0.25400
H939        H  0.55080705  0.60994828  0.11550733     0.08500
H940        H  0.50349901  0.60493601  0.12135734     0.12100
H941        H  0.54482727  0.71235509  0.10480428     0.12000
H942        H  0.50113424  0.73671990  0.10651187     0.11800
H943        H  0.45357504  0.73127038  0.11349307     0.12300
H944        H  0.46047991  0.62912060  0.12505320     0.14300
C945        C  0.63294069  0.94795827  0.54785481    -0.05800
C946        C  0.63148345  0.97266183  0.58626876    -0.05700
C947        C  0.63068552  0.00441160  0.56937889    -0.23900
C948        C  0.63139677  0.01190716  0.51385337     0.18400
C949        C  0.63143563  0.98715990  0.47494477     0.15600
C950        C  0.63201722  0.95540495  0.49216342    -0.18900
C951        C  0.63207013  0.99457765  0.41942633    -0.20700
C952        C  0.63400510  0.02625014  0.40258148    -0.13300
C953        C  0.63534541  0.05098647  0.44100703     0.03400
C954        C  0.63321876  0.04366959  0.49663752    -0.25400
H955        H  0.63205051  0.96755375  0.62940408     0.08500
H956        H  0.63044335  0.02310908  0.59973394     0.12100
H957        H  0.63285019  0.93657049  0.46207002     0.12000
H958        H  0.63194831  0.97586254  0.38908957     0.11800
H959        H  0.63550659  0.03125973  0.35947642     0.12300
H960        H  0.63394619  0.06257561  0.52663233     0.14300
C961        C  0.70768972  0.76918612  0.53116285    -0.05800
C962        C  0.70530693  0.73585470  0.52941351    -0.05700
C963        C  0.72553060  0.71757447  0.50766269    -0.23900
C964        C  0.74819831  0.73247198  0.48689836     0.18400
C965        C  0.75054828  0.76596391  0.48806718     0.15600
C966        C  0.73045568  0.78396088  0.51033224    -0.18900
C967        C  0.77303279  0.78104674  0.46725159    -0.20700
C968        C  0.79361489  0.76298612  0.44718060    -0.13300
C969        C  0.79189250  0.72960190  0.44719606     0.03400
C970        C  0.76879115  0.71450551  0.46599281    -0.25400
H971        H  0.68784266  0.72399701  0.54459155     0.08500
H972        H  0.72343839  0.69185512  0.50697017     0.12100
H973        H  0.73247145  0.80970991  0.51041824     0.12000
H974        H  0.77494196  0.80679197  0.46762798     0.11800
H975        H  0.81114614  0.77513117  0.43301918     0.12300
H976        H  0.76719025  0.68872510  0.46651992     0.14300
C977        C  0.79274187  0.88548617  0.81240709    -0.05800
C978        C  0.76976371  0.88552629  0.84410411    -0.05700
C979        C  0.74517947  0.88568039  0.81961457    -0.23900
C980        C  0.74302274  0.88601887  0.76286976     0.18400
C981        C  0.76593360  0.88757076  0.73056691     0.15600
C982        C  0.79063246  0.88719198  0.75546676    -0.18900
C983        C  0.76374114  0.88839319  0.67382659    -0.20700
C984        C  0.73919577  0.88632426  0.64928406    -0.13300
C985        C  0.71630981  0.88321089  0.68092406     0.03400
C986        C  0.71839558  0.88377644  0.73792403    -0.25400
H987        H  0.77073345  0.88410595  0.88801277     0.08500
H988        H  0.72785517  0.88469427  0.84508049     0.12100
H989        H  0.80814723  0.88734944  0.73050979     0.12000
H990        H  0.78104633  0.88982621  0.64835705     0.11800
H991        H  0.73824662  0.88598466  0.60531362     0.12300
H992        H  0.70095127  0.88162789  0.76288329     0.14300
C993        C  0.62871983  0.77611204  0.75529590    -0.05800
C994        C  0.61162880  0.78590763  0.79672809    -0.05700
C995        C  0.60862142  0.76795074  0.84410925    -0.23900
C996        C  0.62310836  0.74017229  0.85160705     0.18400
C997        C  0.64030796  0.72985288  0.81028464     0.15600
C998        C  0.64268244  0.74761701  0.76183691    -0.18900
C999        C  0.65536739  0.70254832  0.81902445    -0.20700
C1000       C  0.65428684  0.68658373  0.86912512    -0.13300
C1001       C  0.63765181  0.69716591  0.91093114     0.03400
C1002       C  0.62147180  0.72343337  0.90086385    -0.25400
H1003       H  0.60033793  0.80743057  0.79223971     0.08500
H1004       H  0.59534360  0.77617494  0.87540876     0.12100
H1005       H  0.65590874  0.73985051  0.73007553     0.12000
H1006       H  0.66869943  0.69424692  0.78790049     0.11800
H1007       H  0.66709622  0.66659592  0.87575366     0.12300
H1008       H  0.60872633  0.73223323  0.93267783     0.14300
C1009       C  0.62988102  0.80322026  0.41012709    -0.05800
C1010       C  0.64537117  0.81565520  0.36750010    -0.05700
C1011       C  0.64728634  0.79963381  0.31781235    -0.23900
C1012       C  0.63405512  0.77058187  0.30996044     0.18400
C1013       C  0.61775919  0.75837708  0.35178732     0.15600
C1014       C  0.61541770  0.77500718  0.40111940    -0.18900
C1015       C  0.60495407  0.72901286  0.34452395    -0.20700
C1016       C  0.60866647  0.71155899  0.29683274    -0.13300
C1017       C  0.62499170  0.72325647  0.25503650     0.03400
C1018       C  0.63738589  0.75311475  0.26166318    -0.25400
H1019       H  0.65688856  0.83718104  0.37330675     0.08500
H1020       H  0.65986659  0.80939710  0.28625593     0.12100
H1021       H  0.60371362  0.76479947  0.43372778     0.12000
H1022       H  0.59238201  0.71927367  0.37611531     0.11800
H1023       H  0.59859575  0.68886895  0.29257863     0.12300
H1024       H  0.65003981  0.76243694  0.22982278     0.14300
C1025       C  0.38218215  0.05324409  0.44251329    -0.05800
C1026       C  0.38166185  0.02858028  0.40382274    -0.05700
C1027       C  0.38225328  0.99664879  0.42014001    -0.23900
C1028       C  0.38347292  0.98873540  0.47547950     0.18400
C1029       C  0.38550711  0.01329622  0.51453971     0.15600
C1030       C  0.38488690  0.04533592  0.49786403    -0.18900
C1031       C  0.38697379  0.00539711  0.56983125    -0.20700
C1032       C  0.38503345  0.97358466  0.58651016    -0.13300
C1033       C  0.38151921  0.94899259  0.54827121     0.03400
C1034       C  0.38155301  0.95678533  0.49252480    -0.25400
H1035       H  0.37952885  0.03389933  0.36099503     0.08500
H1036       H  0.38086041  0.97814144  0.38955908     0.12100
H1037       H  0.38547283  0.06406215  0.52819221     0.12000
H1038       H  0.38874765  0.02389744  0.60034786     0.11800
H1039       H  0.38514413  0.96840298  0.62964059     0.12300
H1040       H  0.37904402  0.93814535  0.46244756     0.14300
C1041       C  0.36770522  0.70019343  0.92133392    -0.05800
C1042       C  0.35776171  0.68483967  0.87500038    -0.05700
C1043       C  0.35554477  0.70147617  0.82580647    -0.23900
C1044       C  0.36251743  0.73393149  0.82277410     0.18400
C1045       C  0.37220736  0.74950324  0.86951390     0.15600
C1046       C  0.37512428  0.73248035  0.91793920    -0.18900
C1047       C  0.37849323  0.78203288  0.86749400    -0.20700
C1048       C  0.37583125  0.79898757  0.81915827    -0.13300
C1049       C  0.36694773  0.78374264  0.77172291     0.03400
C1050       C  0.35999232  0.75114104  0.77404309    -0.25400
H1051       H  0.35148983  0.66013353  0.87702482     0.08500
H1052       H  0.34794113  0.68914703  0.79046863     0.12100
H1053       H  0.38209339  0.74486531  0.95384241     0.12000
H1054       H  0.38567786  0.79434261  0.90324481     0.11800
H1055       H  0.38129352  0.82399195  0.81873972     0.12300
H1056       H  0.35307599  0.73902584  0.73787229     0.14300
C1057       C  0.36746507  0.73138975  0.25696259    -0.05800
C1058       C  0.34640509  0.75249314  0.26099525    -0.05700
C1059       C  0.34504243  0.77448446  0.30338636    -0.23900
C1060       C  0.36491989  0.77611525  0.34224487     0.18400
C1061       C  0.38653036  0.75549829  0.33804035     0.15600
C1062       C  0.38758313  0.73304068  0.29561419    -0.18900
C1063       C  0.40642890  0.75737284  0.37693326    -0.20700
C1064       C  0.40410297  0.77795928  0.42135794    -0.13300
C1065       C  0.38198070  0.79733506  0.42741869     0.03400
C1066       C  0.36296697  0.79715111  0.38638331    -0.25400
H1067       H  0.33081925  0.75181309  0.23133724     0.08500
H1068       H  0.32835042  0.79009195  0.30593528     0.12100
H1069       H  0.40415463  0.71728030  0.29213335     0.12000
H1070       H  0.42329235  0.74205695  0.37414879     0.11800
H1071       H  0.41904913  0.77759366  0.45239179     0.12300
H1072       H  0.34567900  0.81165878  0.39071625     0.14300
C1073       C  0.45303245  0.82726640  0.63500972    -0.05800
C1074       C  0.46393950  0.79691604  0.62700180    -0.05700
C1075       C  0.49092283  0.79310346  0.62319600    -0.23900
C1076       C  0.50767602  0.81953365  0.62731844     0.18400
C1077       C  0.49707894  0.85007147  0.63653256     0.15600
C1078       C  0.46985349  0.85376917  0.64043503    -0.18900
C1079       C  0.51390345  0.87644867  0.64105503    -0.20700
C1080       C  0.54088974  0.87266583  0.63613777    -0.13300
C1081       C  0.55167798  0.84242429  0.62644173     0.03400
C1082       C  0.53483075  0.81590099  0.62215830    -0.25400
H1083       H  0.45158210  0.77595232  0.62287008     0.08500
H1084       H  0.49866106  0.76949033  0.61645661     0.12100
H1085       H  0.46181125  0.87727405  0.64676669     0.12000
H1086       H  0.50620513  0.90003402  0.64825442     0.11800
H1087       H  0.55333355  0.89358438  0.63984771     0.12300
H1088       H  0.54280998  0.79241783  0.61524066     0.14300
C1089       C  0.29339130  0.77348582  0.54127299    -0.05800
C1090       C  0.29515695  0.74013533  0.54372283    -0.05700
C1091       C  0.27485034  0.72091371  0.52447323    -0.23900
C1092       C  0.25247729  0.73472450  0.50234412     0.18400
C1093       C  0.25031095  0.76818033  0.49998657     0.15600
C1094       C  0.27075493  0.78735855  0.51957149    -0.18900
C1095       C  0.22776236  0.78182533  0.47798497    -0.20700
C1096       C  0.20731106  0.76240009  0.45932506    -0.13300
C1097       C  0.20928713  0.72908674  0.46189549     0.03400
C1098       C  0.23214757  0.71550822  0.48298884    -0.25400
H1099       H  0.31239265  0.72884437  0.55990682     0.08500
H1100       H  0.27671306  0.69524194  0.52660030     0.12100
H1101       H  0.26918591  0.81305436  0.51698073     0.12000
H1102       H  0.22582422  0.80747912  0.47580303     0.11800
H1103       H  0.18987795  0.77342005  0.44352018     0.12300
H1104       H  0.23397928  0.68984013  0.48570649     0.14300
C1105       C  0.21541211  0.89059177  0.81435227    -0.05800
C1106       C  0.23822105  0.88998681  0.84612522    -0.05700
C1107       C  0.26297113  0.89109142  0.82180210    -0.23900
C1108       C  0.26549094  0.89311013  0.76512733     0.18400
C1109       C  0.24278470  0.89546272  0.73289228     0.15600
C1110       C  0.21789389  0.89404481  0.75762221    -0.18900
C1111       C  0.24536571  0.89788009  0.67626713    -0.20700
C1112       C  0.27001922  0.89618824  0.65160731    -0.13300
C1113       C  0.29268848  0.89199302  0.68297280     0.03400
C1114       C  0.29024120  0.89144939  0.74007820    -0.25400
H1115       H  0.23695924  0.88708362  0.88982047     0.08500
H1116       H  0.28012983  0.88938925  0.84726028     0.12100
H1117       H  0.20050794  0.89463199  0.73263749     0.12000
H1118       H  0.22823103  0.90002144  0.65085486     0.11800
H1119       H  0.27115933  0.89678945  0.60765133     0.12300
H1120       H  0.30744046  0.88836534  0.76502635     0.14300
loop_ 
_geom_bond_atom_site_label_1 
_geom_bond_atom_site_label_2 
_geom_bond_distance 
_geom_bond_site_symmetry_2 
_ccdc_geom_bond_type 
Fe1          O17   2.066       .  S
Fe1           O7   2.082       .  S
Fe1          O14   2.089       .  S
Fe1           O6   2.074       .  S
Fe1          O12   1.950       .  S
Fe2           O5   2.042       .  S
Fe2           O9   2.095       .  S
Fe2          O13   2.060       .  S
Fe2          O18   2.094       .  S
Fe2          O12   1.948       .  S
Fe3          O21   2.075       .  S
Fe3           O8   2.047       .  S
Fe3          O15   2.052       .  S
Fe3           O4   2.072       .  S
Fe3          O12   1.945       .  S
O4           C11   1.273       .  A
O5           C19   1.266       .  A
O6           C11   1.275       .  A
O7           C10   1.272       .  A
O8           C20   1.267       .  A
O9           C22   1.278       .  A
C10          O15   1.266       .  A
C10        C1049   1.482       .  S
C11        C1073   1.484       .  S
O13          C16   1.268       .  A
O14          C16   1.273       .  A
C16        C1033   1.488       .  S
O17          C22   1.273       .  A
O18          C20   1.276       .  A
C19          O21   1.271       .  A
C19        C1089   1.476       .  S
C20        C1065   1.482       .  S
C22        C1113   1.492       .  S
Fe23         O39   2.092       .  S
Fe23         O29   2.043       .  S
Fe23         O36   2.062       .  S
Fe23         O28   2.080       .  S
Fe23         O34   1.945       .  S
Fe24         O27   2.073       .  S
Fe24         O31   2.039       .  S
Fe24         O35   2.084       .  S
Fe24         O40   2.023       .  S
Fe24         O34   1.937       .  S
Fe25         O43   2.064       .  S
Fe25         O30   2.103       .  S
Fe25         O37   2.106       .  S
Fe25         O26   2.063       .  S
Fe25         O34   1.948       .  S
O26          C33   1.267       .  A
O27          C41   1.269       .  A
O28          C33   1.271       .  A
O29          C32   1.270       .  A
O30          C42   1.279       .  A
O31          C44   1.267       .  A
C32          O37   1.282       .  A
C32        C1081   1.484       .  S
C33         C993   1.480       .  S
O35          C38   1.272       .  A
O36          C38   1.270       .  A
C38         C985   1.485       .  S
O39          C44   1.275       .  A
O40          C42   1.267       .  A
C41          O43   1.269       .  A
C41        C1009   1.486       .  S
C42         C961   1.475       .  S
C44         C945   1.476       .  S
Fe45         O61   2.046       .  S
Fe45         O51   2.084       .  S
Fe45         O58   2.087       .  S
Fe45         O50   2.041       .  S
Fe45         O56   1.941       .  S
Fe46         O49   2.028       .  S
Fe46         O53   2.104       .  S
Fe46         O57   2.053       .  S
Fe46         O62   2.098   1_554  S
Fe46         O56   1.945       .  S
Fe47         O65   2.102       .  S
Fe47         O52   2.051       .  S
Fe47         O59   2.060       .  S
Fe47         O48   2.109       .  S
Fe47         O56   1.946       .  S
O48          C55   1.279       .  A
O49          C63   1.264       .  A
O50          C55   1.269       .  A
O51          C54   1.272       .  A
O52          C64   1.269   1_554  A
O53          C66   1.278       .  A
C54          O59   1.268       .  A
C54        C1017   1.484       .  S
C55         C929   1.485       .  S
O57          C60   1.267       .  A
O58          C60   1.273       .  A
C60         C889   1.481       .  S
O61          C66   1.268       .  A
O62          C64   1.276       .  A
C63          O65   1.277       .  A
C63         C897   1.478       .  S
C64        C1001   1.488       .  S
C66         C921   1.488       .  S
Fe67         O83   2.120       .  S
Fe67         O73   2.062       .  S
Fe67         O80   2.071       .  S
Fe67         O72   2.108       .  S
Fe67         O78   1.938       .  S
Fe68         O71   2.095   1_554  S
Fe68         O75   2.039       .  S
Fe68         O79   2.082       .  S
Fe68         O84   2.029       .  S
Fe68         O78   1.934       .  S
Fe69         O87   2.040       .  S
Fe69         O74   2.093       .  S
Fe69         O81   2.091       .  S
Fe69         O70   2.039       .  S
Fe69         O78   1.928       .  S
O70          C77   1.264       .  A
O71          C85   1.272       .  A
O72          C77   1.276       .  A
O73          C76   1.275       .  A
O74          C86   1.277       .  A
O75          C88   1.268       .  A
C76          O81   1.277       .  A
C76         C937   1.485       .  S
C77        C1057   1.477       .  S
O79          C82   1.272       .  A
O80          C82   1.271       .  A
C82         C873   1.486       .  S
O83          C88   1.281       .  A
O84          C86   1.265       .  A
C85          O87   1.265   1_556  A
C85        C1041   1.476       .  S
C86         C849   1.465       .  S
C88         C841   1.485       .  S
Fe89        O105   2.072       .  S
Fe89         O95   2.102       .  S
Fe89        O102   2.104       .  S
Fe89         O94   2.063       .  S
Fe89        O100   1.947       .  S
Fe90         O93   2.032       .  S
Fe90         O97   2.085       .  S
Fe90        O101   2.050       .  S
Fe90        O106   2.095   1_556  S
Fe90        O100   1.943       .  S
Fe91        O109   2.087       .  S
Fe91         O96   2.049       .  S
Fe91        O103   2.043       .  S
Fe91         O92   2.092       .  S
Fe91        O100   1.936       .  S
O92          C99   1.279       .  A
O93         C107   1.265       .  A
O94          C99   1.274       .  A
O95          C98   1.273       .  A
O96         C108   1.266   1_556  A
O97         C110   1.273       .  A
C98         O103   1.263       .  A
C98         C793   1.475       .  S
C99         C825   1.488       .  S
O101        C104   1.269       .  A
O102        C104   1.279       .  A
C104        C769   1.483       .  S
O105        C110   1.271       .  A
O106        C108   1.273       .  A
C107        O109   1.276       .  A
C107        C857   1.463       .  S
C108        C801   1.485       .  S
C110       C1105   1.487       .  S
Fe111       O127   2.088       .  S
Fe111       O117   2.056       .  S
Fe111       O124   2.065       .  S
Fe111       O116   2.072       .  S
Fe111       O122   1.948       .  S
Fe112       O115   2.077   1_556  S
Fe112       O119   2.046       .  S
Fe112       O123   2.084       .  S
Fe112       O128   2.030       .  S
Fe112       O122   1.945       .  S
Fe113       O131   2.058       .  S
Fe113       O118   2.100       .  S
Fe113       O125   2.102       .  S
Fe113       O114   2.066       .  S
Fe113       O122   1.950       .  S
O114        C121   1.267       .  A
O115        C129   1.270       .  A
O116        C121   1.270       .  A
O117        C120   1.274       .  A
O118        C130   1.279       .  A
O119        C132   1.267       .  A
C120        O125   1.281       .  A
C120        C817   1.488       .  S
C121        C737   1.484       .  S
O123        C126   1.273       .  A
O124        C126   1.271       .  A
C126        C977   1.485       .  S
O127        C132   1.273       .  A
O128        C130   1.267       .  A
C129        O131   1.268   1_554  A
C129        C761   1.485       .  S
C130        C905   1.478       .  S
C132        C729   1.479       .  S
Fe133       O149   2.047       .  S
Fe133       O139   2.082       .  S
Fe133       O146   2.085       .  S
Fe133       O138   2.042       .  S
Fe133       O144   1.952       .  S
Fe134       O137   2.029       .  S
Fe134       O141   2.103       .  S
Fe134       O145   2.046       .  S
Fe134       O150   2.099       .  S
Fe134       O144   1.952       .  S
Fe135       O153   2.084       .  S
Fe135       O140   2.043       .  S
Fe135       O147   2.059       .  S
Fe135       O136   2.085       .  S
Fe135       O144   1.946       .  S
O136        C143   1.276       .  A
O137        C151   1.264       .  A
O138        C143   1.270       .  A
O139        C142   1.271       .  A
O140        C152   1.267       .  A
O141        C154   1.279       .  A
C142        O147   1.267       .  A
C142        C753   1.486       .  S
C143        C705   1.476       .  S
O145        C148   1.264       .  A
O146        C148   1.271       .  A
C148        C689   1.481       .  S
O149        C154   1.270       .  A
O150        C152   1.275       .  A
C151        O153   1.274       .  A
C151        C969   1.474       .  S
C152        C745   1.487       .  S
C154        C913   1.488       .  S
Fe155       O171   2.082       .  S
Fe155       O161   2.051       .  S
Fe155       O168   2.057       .  S
Fe155       O160   2.080       .  S
Fe155       O166   1.945       .  S
Fe156       O159   2.090       .  S
Fe156       O163   2.062       .  S
Fe156       O167   2.091       .  S
Fe156       O172   2.029       .  S
Fe156       O166   1.944       .  S
Fe157       O175   2.049       .  S
Fe157       O162   2.094       .  S
Fe157       O169   2.084       .  S
Fe157       O158   2.061       .  S
Fe157       O166   1.943       .  S
O158        C165   1.266       .  A
O159        C173   1.273       .  A
O160        C165   1.270       .  A
O161        C164   1.273       .  A
O162        C174   1.277       .  A
O163        C176   1.270       .  A
C164        O169   1.278       .  A
C164        C713   1.477       .  S
C165        C809   1.487       .  S
O167        C170   1.275       .  A
O168        C170   1.272       .  A
C170        C865   1.483       .  S
O171        C176   1.272       .  A
O172        C174   1.267       .  A
C173        O175   1.264       .  A
C173        C785   1.484       .  S
C174       C1097   1.476       .  S
C176        C673   1.482       .  S
Fe177       O193   2.063       .  S
Fe177       O183   2.069       .  S
Fe177       O190   2.085       .  S
Fe177       O182   2.069       .  S
Fe177       O188   1.956       .  S
Fe178       O181   2.043       .  S
Fe178       O185   2.082       .  S
Fe178       O189   2.049       .  S
Fe178       O194   2.069   1_556  S
Fe178       O188   1.954       .  S
Fe179       O197   2.090       .  S
Fe179       O184   2.048       .  S
Fe179       O191   2.063       .  S
Fe179       O180   2.089       .  S
Fe179       O188   1.950       .  S
O180        C187   1.279       .  A
O181        C195   1.267       .  A
O182        C187   1.277       .  A
O183        C186   1.268       .  A
O184        C196   1.267   1_556  A
O185        C198   1.275       .  A
C186        O191   1.266       .  A
C186        C633   1.485       .  S
C187        C657   1.488       .  S
O189        C192   1.264       .  A
O190        C192   1.269       .  A
C192        C881   1.481       .  S
O193        C198   1.274       .  A
O194        C196   1.269       .  A
C195        O197   1.276       .  A
C195        C593   1.482       .  S
C196        C641   1.477       .  S
C198        C617   1.483       .  S
Fe199       O215   2.099       .  S
Fe199       O205   2.057       .  S
Fe199       O212   2.064       .  S
Fe199       O204   2.082       .  S
Fe199       O210   1.940       .  S
Fe200       O203   2.094   1_556  S
Fe200       O207   2.057       .  S
Fe200       O211   2.088       .  S
Fe200       O216   2.023       .  S
Fe200       O210   1.944       .  S
Fe201       O219   2.048       .  S
Fe201       O206   2.116       .  S
Fe201       O213   2.099       .  S
Fe201       O202   2.056       .  S
Fe201       O210   1.946       .  S
O202        C209   1.267       .  A
O203        C217   1.272       .  A
O204        C209   1.273       .  A
O205        C208   1.273       .  A
O206        C218   1.281       .  A
O207        C220   1.271       .  A
C208        O213   1.279       .  A
C208        C665   1.488       .  S
C209        C529   1.484       .  S
O211        C214   1.273       .  A
O212        C214   1.269       .  A
C214        C577   1.487       .  S
O215        C220   1.278       .  A
O216        C218   1.265       .  A
C217        O219   1.263   1_554  A
C217        C545   1.479       .  S
C218        C569   1.471       .  S
C220        C833   1.487       .  S
Fe221       O237   2.075       .  S
Fe221       O227   2.097       .  S
Fe221       O234   2.099       .  S
Fe221       O226   2.075       .  S
Fe221       O232   1.956       .  S
Fe222       O225   2.041       .  S
Fe222       O229   2.080       .  S
Fe222       O233   2.053       .  S
Fe222       O238   2.081       .  S
Fe222       O232   1.948       .  S
Fe223       O241   2.071       .  S
Fe223       O228   2.050       .  S
Fe223       O235   2.046       .  S
Fe223       O224   2.079       .  S
Fe223       O232   1.944       .  S
O224        C231   1.276       .  A
O225        C239   1.268       .  A
O226        C231   1.276       .  A
O227        C230   1.271       .  A
O228        C240   1.267       .  A
O229        C242   1.273       .  A
C230        O235   1.262       .  A
C230        C553   1.470       .  S
C231        C481   1.488       .  S
O233        C236   1.268       .  A
O234        C236   1.276       .  A
C236       C1025   1.486       .  S
O237        C242   1.274       .  A
O238        C240   1.271       .  A
C239        O241   1.272       .  A
C239        C513   1.471       .  S
C240        C537   1.474       .  S
C242        C505   1.486       .  S
Fe243       O259   2.079       .  S
Fe243       O249   2.058       .  S
Fe243       O256   2.067       .  S
Fe243       O248   2.064       .  S
Fe243       O254   1.950       .  S
Fe244       O247   2.075       .  S
Fe244       O251   2.046       .  S
Fe244       O255   2.084       .  S
Fe244       O260   2.034       .  S
Fe244       O254   1.945       .  S
Fe245       O263   2.054       .  S
Fe245       O250   2.096       .  S
Fe245       O257   2.097       .  S
Fe245       O246   2.056       .  S
Fe245       O254   1.950       .  S
O246        C253   1.265       .  A
O247        C261   1.269       .  A
O248        C253   1.268       .  A
O249        C252   1.273       .  A
O250        C262   1.278       .  A
O251        C264   1.267       .  A
C252        O257   1.280       .  A
C252        C489   1.487       .  S
C253        C649   1.478       .  S
O255        C258   1.273       .  A
O256        C258   1.271       .  A
C258        C449   1.487       .  S
O259        C264   1.271       .  A
O260        C262   1.268       .  A
C261        O263   1.267       .  A
C261        C625   1.477       .  S
C262        C465   1.478       .  S
C264        C953   1.475       .  S
Fe265       O281   2.055       .  S
Fe265       O271   2.094       .  S
Fe265       O278   2.096       .  S
Fe265       O270   2.045       .  S
Fe265       O276   1.947       .  S
Fe266       O269   2.035       .  S
Fe266       O273   2.088       .  S
Fe266       O277   2.044       .  S
Fe266       O282   2.087       .  S
Fe266       O276   1.941       .  S
Fe267       O285   2.094       .  S
Fe267       O272   2.047       .  S
Fe267       O279   2.048       .  S
Fe267       O268   2.099       .  S
Fe267       O276   1.937       .  S
O268        C275   1.279       .  A
O269        C283   1.268       .  A
O270        C275   1.270       .  A
O271        C274   1.273       .  A
O272        C284   1.266       .  A
O273        C286   1.274       .  A
C274        O279   1.264       .  A
C274        C425   1.471       .  S
C275        C441   1.484       .  S
O277        C280   1.268       .  A
O278        C280   1.275       .  A
C280        C697   1.476       .  S
O281        C286   1.270       .  A
O282        C284   1.271       .  A
C283        O285   1.278       .  A
C283        C473   1.477       .  S
C284        C401   1.480       .  S
C286        C609   1.481       .  S
Fe287       O303   2.084       .  S
Fe287       O293   2.071       .  S
Fe287       O300   2.074       .  S
Fe287       O292   2.073       .  S
Fe287       O298   1.944       .  S
Fe288       O291   2.090       .  S
Fe288       O295   2.055       .  S
Fe288       O299   2.088       .  S
Fe288       O304   2.036       .  S
Fe288       O298   1.942       .  S
Fe289       O307   2.048       .  S
Fe289       O294   2.078       .  S
Fe289       O301   2.074       .  S
Fe289       O290   2.051       .  S
Fe289       O298   1.942       .  S
O290        C297   1.265       .  A
O291        C305   1.274       .  A
O292        C297   1.270       .  A
O293        C296   1.276       .  A
O294        C306   1.273       .  A
O295        C308   1.269       .  A
C296        O301   1.274       .  A
C296        C433   1.483       .  S
C297        C393   1.477       .  S
O299        C302   1.275       .  A
O300        C302   1.274       .  A
C302        C585   1.491       .  S
O303        C308   1.272       .  A
O304        C306   1.267       .  A
C305        O307   1.266       .  A
C305        C369   1.479       .  S
C306        C521   1.470       .  S
C308        C681   1.483       .  S
Fe309       O325   2.070       .  S
Fe309       O315   2.100       .  S
Fe309       O322   2.111       .  S
Fe309       O314   2.061       .  S
Fe309       O320   1.939       .  S
Fe310       O313   2.042       .  S
Fe310       O317   2.080       .  S
Fe310       O321   2.041       .  S
Fe310       O326   2.091   1_554  S
Fe310       O320   1.937       .  S
Fe311       O329   2.097       .  S
Fe311       O316   2.036       .  S
Fe311       O323   2.046       .  S
Fe311       O312   2.092       .  S
Fe311       O320   1.925       .  S
O312        C319   1.277       .  A
O313        C327   1.266       .  A
O314        C319   1.275       .  A
O315        C318   1.274       .  A
O316        C328   1.264   1_554  A
O317        C330   1.272       .  A
C318        O323   1.265       .  A
C318        C377   1.473       .  S
C319        C353   1.487       .  S
O321        C324   1.267       .  A
O322        C324   1.279       .  A
C324        C777   1.485       .  S
O325        C330   1.272       .  A
O326        C328   1.272       .  A
C327        O329   1.277       .  A
C327        C561   1.472       .  S
C328        C385   1.477       .  S
C330        C497   1.485       .  S
Fe331       O347   2.087       .  S
Fe331       O337   2.043       .  S
Fe331       O344   2.058       .  S
Fe331       O336   2.076       .  S
Fe331       O342   1.941       .  S
Fe332       O335   2.085   1_554  S
Fe332       O339   2.049       .  S
Fe332       O343   2.092       .  S
Fe332       O348   2.024       .  S
Fe332       O342   1.943       .  S
Fe333       O351   2.049       .  S
Fe333       O338   2.117       .  S
Fe333       O345   2.109       .  S
Fe333       O334   2.060       .  S
Fe333       O342   1.946       .  S
O334        C341   1.267       .  A
O335        C349   1.271       .  A
O336        C341   1.271       .  A
O337        C340   1.272       .  A
O338        C350   1.282       .  A
O339        C352   1.267       .  A
C340        O345   1.281       .  A
C340        C361   1.487       .  S
C341        C409   1.484       .  S
O343        C346   1.274       .  A
O344        C346   1.270       .  A
C346        C457   1.485       .  S
O347        C352   1.273       .  A
O348        C350   1.267       .  A
C349        O351   1.264   1_556  A
C349        C417   1.482       .  S
C350        C601   1.482       .  S
C352        C721   1.479       .  S
C353        C354   1.409       .  A
C353        C358   1.405       .  A
C354        C355   1.401       .  A
C354        H363   1.083       .  S
C355        C356   1.403       .  A
C355        H364   1.084       .  S
C356        C362   1.410   1_455  A
C356        C357   1.414       .  A
C357        C359   1.398   1_455  A
C357        C358   1.403       .  A
C358        H365   1.084       .  S
C359        C360   1.393       .  A
C359        H366   1.084   1_655  S
C360        C361   1.409       .  A
C360        H367   1.083       .  S
C361        C362   1.409       .  A
C362        H368   1.084       .  S
C369        C370   1.406       .  A
C369        C374   1.406       .  A
C370        C371   1.398       .  A
C370        H379   1.083       .  S
C371        C372   1.402       .  A
C371        H380   1.084       .  S
C372        C378   1.406       .  A
C372        C373   1.415       .  A
C373        C375   1.402       .  A
C373        C374   1.404       .  A
C374        H381   1.084       .  S
C375        C376   1.397       .  A
C375        H382   1.084       .  S
C376        C377   1.403       .  A
C376        H383   1.083       .  S
C377        C378   1.405       .  A
C378        H384   1.084       .  S
C385        C386   1.406       .  A
C385        C390   1.405       .  A
C386        C387   1.401       .  A
C386        H395   1.083       .  S
C387        C388   1.405       .  A
C387        H396   1.083       .  S
C388        C394   1.405       .  A
C388        C389   1.412       .  A
C389        C391   1.399       .  A
C389        C390   1.395       .  A
C390        H397   1.084       .  S
C391        C392   1.391       .  A
C391        H398   1.084       .  S
C392        C393   1.405       .  A
C392        H399   1.083       .  S
C393        C394   1.409       .  A
C394        H400   1.084       .  S
C401        C402   1.406       .  A
C401        C406   1.406       .  A
C402        C403   1.403       .  A
C402        H411   1.083       .  S
C403        C404   1.405       .  A
C403        H412   1.083       .  S
C404        C410   1.408       .  A
C404        C405   1.413       .  A
C405        C407   1.399       .  A
C405        C406   1.400       .  A
C406        H413   1.085       .  S
C407        C408   1.393       .  A
C407        H414   1.084       .  S
C408        C409   1.406       .  A
C408        H415   1.083       .  S
C409        C410   1.411       .  A
C410        H416   1.084       .  S
C417        C418   1.407       .  A
C417        C422   1.407       .  A
C418        C419   1.397       .  A
C418        H427   1.083       .  S
C419        C420   1.401       .  A
C419        H428   1.084       .  S
C420        C426   1.405       .  A
C420        C421   1.415       .  A
C421        C423   1.403       .  A
C421        C422   1.404       .  A
C422        H429   1.084       .  S
C423        C424   1.397       .  A
C423        H430   1.084       .  S
C424        C425   1.403       .  A
C424        H431   1.083       .  S
C425        C426   1.403       .  A
C426        H432   1.085       .  S
C433        C434   1.409       .  A
C433        C438   1.406       .  A
C434        C435   1.395       .  A
C434        H443   1.083       .  S
C435        C436   1.399   1_455  A
C435        H444   1.084       .  S
C436        C442   1.405       .  A
C436        C437   1.414   1_655  A
C437        C439   1.400   1_455  A
C437        C438   1.405       .  A
C438        H445   1.084       .  S
C439        C440   1.396       .  A
C439        H446   1.084   1_655  S
C440        C441   1.409       .  A
C440        H447   1.083       .  S
C441        C442   1.406       .  A
C442        H448   1.084       .  S
C449        C450   1.408       .  A
C449        C454   1.408       .  A
C450        C451   1.397       .  A
C450        H459   1.083       .  S
C451        C452   1.400       .  A
C451        H460   1.084       .  S
C452        C458   1.406       .  A
C452        C453   1.414       .  A
C453        C455   1.402       .  A
C453        C454   1.408       .  A
C454        H461   1.084       .  S
C455        C456   1.399       .  A
C455        H462   1.084       .  S
C456        C457   1.408       .  A
C456        H463   1.083       .  S
C457        C458   1.407       .  A
C458        H464   1.084       .  S
C465        C466   1.405       .  A
C465        C470   1.408       .  A
C466        C467   1.398       .  A
C466        H475   1.083       .  S
C467        C468   1.404       .  A
C467        H476   1.084       .  S
C468        C474   1.400       .  A
C468        C469   1.411       .  A
C469        C471   1.402       .  A
C469        C470   1.397       .  A
C470        H477   1.084       .  S
C471        C472   1.395       .  A
C471        H478   1.084       .  S
C472        C473   1.404       .  A
C472        H479   1.083       .  S
C473        C474   1.410       .  A
C474        H480   1.084       .  S
C481        C482   1.409       .  A
C481        C486   1.409       .  A
C482        C483   1.395       .  A
C482        H491   1.083       .  S
C483        C484   1.399       .  A
C483        H492   1.084       .  S
C484        C490   1.405       .  A
C484        C485   1.414       .  A
C485        C487   1.402       .  A
C485        C486   1.409       .  A
C486        H493   1.084       .  S
C487        C488   1.399       .  A
C487        H494   1.084       .  S
C488        C489   1.409       .  A
C488        H495   1.083       .  S
C489        C490   1.406       .  A
C490        H496   1.084       .  S
C497        C498   1.408       .  A
C497        C502   1.407       .  A
C498        C499   1.397       .  A
C498        H507   1.083       .  S
C499        C500   1.400       .  A
C499        H508   1.084       .  S
C500        C506   1.408       .  A
C500        C501   1.415       .  A
C501        C503   1.400       .  A
C501        C502   1.408       .  A
C502        H509   1.084       .  S
C503        C504   1.397       .  A
C503        H510   1.084       .  S
C504        C505   1.409       .  A
C504        H511   1.083       .  S
C505        C506   1.406       .  A
C506        H512   1.084       .  S
C513        C514   1.405       .  A
C513        C518   1.405       .  A
C514        C515   1.394       .  A
C514        H523   1.083       .  S
C515        C516   1.402       .  A
C515        H524   1.084       .  S
C516        C522   1.396       .  A
C516        C517   1.412       .  A
C517        C519   1.401       .  A
C517        C518   1.396       .  A
C518        H525   1.084       .  S
C519        C520   1.394       .  A
C519        H526   1.084       .  S
C520        C521   1.404       .  A
C520        H527   1.083       .  S
C521        C522   1.406       .  A
C522        H528   1.084       .  S
C529        C530   1.406       .  A
C529        C534   1.411       .  A
C530        C531   1.395       .  A
C530        H539   1.083       .  S
C531        C532   1.401       .  A
C531        H540   1.084       .  S
C532        C538   1.400       .  A
C532        C533   1.412       .  A
C533        C535   1.407       .  A
C533        C534   1.407       .  A
C534        H541   1.084       .  S
C535        C536   1.403       .  A
C535        H542   1.083       .  S
C536        C537   1.403       .  A
C536        H543   1.083       .  S
C537        C538   1.405       .  A
C538        H544   1.085       .  S
C545        C546   1.406       .  A
C545        C550   1.406       .  A
C546        C547   1.399       .  A
C546        H555   1.083       .  S
C547        C548   1.403       .  A
C547        H556   1.084       .  S
C548        C554   1.407       .  A
C548        C549   1.415       .  A
C549        C551   1.403       .  A
C549        C550   1.405       .  A
C550        H557   1.085       .  S
C551        C552   1.397       .  A
C551        H558   1.084       .  S
C552        C553   1.402       .  A
C552        H559   1.083       .  S
C553        C554   1.404       .  A
C554        H560   1.084       .  S
C561        C562   1.406       .  A
C561        C566   1.401       .  A
C562        C563   1.399       .  A
C562        H571   1.083       .  S
C563        C564   1.403   1_554  A
C563        H572   1.084       .  S
C564        C570   1.406       .  A
C564        C565   1.416       .  A
C565        C567   1.398       .  A
C565        C566   1.400   1_556  A
C566        H573   1.085   1_554  S
C567        C568   1.392       .  A
C567        H574   1.084       .  S
C568        C569   1.406       .  A
C568        H575   1.084       .  S
C569        C570   1.404       .  A
C570        H576   1.084       .  S
C577        C578   1.408       .  A
C577        C582   1.408       .  A
C578        C579   1.399       .  A
C578        H587   1.083       .  S
C579        C580   1.402       .  A
C579        H588   1.084       .  S
C580        C586   1.410       .  A
C580        C581   1.414       .  A
C581        C583   1.401       .  A
C581        C582   1.408       .  A
C582        H589   1.084       .  S
C583        C584   1.398       .  A
C583        H590   1.084       .  S
C584        C585   1.409       .  A
C584        H591   1.083       .  S
C585        C586   1.409       .  A
C586        H592   1.084       .  S
C593        C594   1.404       .  A
C593        C598   1.413       .  A
C594        C595   1.396       .  A
C594        H603   1.083       .  S
C595        C596   1.403       .  A
C595        H604   1.084       .  S
C596        C602   1.397   1_556  A
C596        C597   1.409       .  A
C597        C599   1.407   1_556  A
C597        C598   1.403       .  A
C598        H605   1.084       .  S
C599        C600   1.402       .  A
C599        H606   1.083       .  S
C600        C601   1.403       .  A
C600        H607   1.083       .  S
C601        C602   1.411       .  A
C602        H608   1.084       .  S
C609        C610   1.407       .  A
C609        C614   1.406       .  A
C610        C611   1.397       .  A
C610        H619   1.083       .  S
C611        C612   1.401       .  A
C611        H620   1.084       .  S
C612        C618   1.405       .  A
C612        C613   1.414       .  A
C613        C615   1.400       .  A
C613        C614   1.404       .  A
C614        H621   1.084       .  S
C615        C616   1.396       .  A
C615        H622   1.084       .  S
C616        C617   1.408       .  A
C616        H623   1.083       .  S
C617        C618   1.407       .  A
C618        H624   1.084       .  S
C625        C626   1.405       .  A
C625        C630   1.404       .  A
C626        C627   1.402       .  A
C626        H635   1.083       .  S
C627        C628   1.405       .  A
C627        H636   1.083       .  S
C628        C634   1.409       .  A
C628        C629   1.413       .  A
C629        C631   1.399       .  A
C629        C630   1.400       .  A
C630        H637   1.085       .  S
C631        C632   1.393       .  A
C631        H638   1.084       .  S
C632        C633   1.407       .  A
C632        H639   1.083       .  S
C633        C634   1.411       .  A
C634        H640   1.084       .  S
C641        C642   1.406       .  A
C641        C646   1.405       .  A
C642        C643   1.400       .  A
C642        H651   1.083       .  S
C643        C644   1.404       .  A
C643        H652   1.083       .  S
C644        C650   1.405       .  A
C644        C645   1.413       .  A
C645        C647   1.398       .  A
C645        C646   1.396       .  A
C646        H653   1.084       .  S
C647        C648   1.391       .  A
C647        H654   1.084       .  S
C648        C649   1.406       .  A
C648        H655   1.083       .  S
C649        C650   1.409       .  A
C650        H656   1.084       .  S
C657        C658   1.409       .  A
C657        C662   1.407       .  A
C658        C659   1.398       .  A
C658        H667   1.083       .  S
C659        C660   1.401       .  A
C659        H668   1.084       .  S
C660        C666   1.408       .  A
C660        C661   1.414       .  A
C661        C663   1.400       .  A
C661        C662   1.406       .  A
C662        H669   1.084       .  S
C663        C664   1.397       .  A
C663        H670   1.084       .  S
C664        C665   1.408       .  A
C664        H671   1.083       .  S
C665        C666   1.409       .  A
C666        H672   1.084       .  S
C673        C674   1.408       .  A
C673        C678   1.407       .  A
C674        C675   1.395       .  A
C674        H683   1.083       .  S
C675        C676   1.400       .  A
C675        H684   1.084       .  S
C676        C682   1.403       .  A
C676        C677   1.414       .  A
C677        C679   1.402       .  A
C677        C678   1.406       .  A
C678        H685   1.084       .  S
C679        C680   1.398       .  A
C679        H686   1.084       .  S
C680        C681   1.408       .  A
C680        H687   1.083       .  S
C681        C682   1.406       .  A
C682        H688   1.084       .  S
C689        C690   1.406       .  A
C689        C694   1.408       .  A
C690        C691   1.397       .  A
C690        H699   1.083       .  S
C691        C692   1.402       .  A
C691        H700   1.084       .  S
C692        C698   1.401       .  A
C692        C693   1.412       .  A
C693        C695   1.403       .  A
C693        C694   1.401       .  A
C694        H701   1.084       .  S
C695        C696   1.397       .  A
C695        H702   1.084       .  S
C696        C697   1.405       .  A
C696        H703   1.083       .  S
C697        C698   1.406       .  A
C698        H704   1.084       .  S
C705        C706   1.405       .  A
C705        C710   1.406       .  A
C706        C707   1.396       .  A
C706        H715   1.083       .  S
C707        C708   1.402   1_655  A
C707        H716   1.084   1_655  S
C708        C714   1.400       .  A
C708        C709   1.413   1_455  A
C709        C711   1.401   1_655  A
C709        C710   1.399       .  A
C710        H717   1.084       .  S
C711        C712   1.395       .  A
C711        H718   1.084       .  S
C712        C713   1.406       .  A
C712        H719   1.083       .  S
C713        C714   1.406       .  A
C714        H720   1.084       .  S
C721        C722   1.406       .  A
C721        C726   1.407   1_554  A
C722        C723   1.395       .  A
C722        H731   1.083       .  S
C723        C724   1.401   1_545  A
C723        H732   1.084   1_545  S
C724        C730   1.401   1_554  A
C724        C725   1.413   1_564  A
C725        C727   1.402       .  A
C725        C726   1.403       .  A
C726        H733   1.084       .  S
C727        C728   1.397   1_545  A
C727        H734   1.084       .  S
C728        C729   1.406       .  A
C728        H735   1.083       .  S
C729        C730   1.406       .  A
C730        H736   1.084   1_556  S
C737        C738   1.406       .  A
C737        C742   1.412       .  A
C738        C739   1.391       .  A
C738        H747   1.083       .  S
C739        C740   1.398       .  A
C739        H748   1.084       .  S
C740        C746   1.398       .  A
C740        C741   1.412       .  A
C741        C743   1.407       .  A
C741        C742   1.411       .  A
C742        H749   1.084       .  S
C743        C744   1.406       .  A
C743        H750   1.083       .  S
C744        C745   1.407       .  A
C744        H751   1.083       .  S
C745        C746   1.407       .  A
C746        H752   1.084       .  S
C753        C754   1.407       .  A
C753        C758   1.410       .  A
C754        C755   1.396       .  A
C754        H763   1.083       .  S
C755        C756   1.401       .  A
C755        H764   1.084       .  S
C756        C762   1.403       .  A
C756        C757   1.413       .  A
C757        C759   1.403       .  A
C757        C758   1.408       .  A
C758        H765   1.084       .  S
C759        C760   1.401       .  A
C759        H766   1.083       .  S
C760        C761   1.407       .  A
C760        H767   1.083       .  S
C761        C762   1.408       .  A
C762        H768   1.084       .  S
C769        C770   1.405       .  A
C769        C774   1.410   1_556  A
C770        C771   1.396   1_565  A
C770        H779   1.083       .  S
C771        C772   1.401       .  A
C771        H780   1.084       .  S
C772        C778   1.402       .  A
C772        C773   1.412   1_546  A
C773        C775   1.405       .  A
C773        C774   1.407       .  A
C774        H781   1.084       .  S
C775        C776   1.401   1_565  A
C775        H782   1.083       .  S
C776        C777   1.406       .  A
C776        H783   1.083       .  S
C777        C778   1.408   1_554  A
C778        H784   1.084       .  S
C785        C786   1.408       .  A
C785        C790   1.407       .  A
C786        C787   1.400       .  A
C786        H795   1.083       .  S
C787        C788   1.402       .  A
C787        H796   1.084       .  S
C788        C794   1.409       .  A
C788        C789   1.415       .  A
C789        C791   1.401       .  A
C789        C790   1.405       .  A
C790        H797   1.084       .  S
C791        C792   1.396       .  A
C791        H798   1.084       .  S
C792        C793   1.404       .  A
C792        H799   1.084       .  S
C793        C794   1.405       .  A
C794        H800   1.084       .  S
C801        C802   1.406       .  A
C801        C806   1.408       .  A
C802        C803   1.402       .  A
C802        H811   1.083       .  S
C803        C804   1.405       .  A
C803        H812   1.083       .  S
C804        C810   1.409       .  A
C804        C805   1.412       .  A
C805        C807   1.401       .  A
C805        C806   1.403       .  A
C806        H813   1.084       .  S
C807        C808   1.396       .  A
C807        H814   1.084       .  S
C808        C809   1.407       .  A
C808        H815   1.083       .  S
C809        C810   1.411       .  A
C810        H816   1.084       .  S
C817        C818   1.409       .  A
C817        C822   1.408       .  A
C818        C819   1.398       .  A
C818        H827   1.083       .  S
C819        C820   1.401   1_655  A
C819        H828   1.084   1_655  S
C820        C826   1.407       .  A
C820        C821   1.413       .  A
C821        C823   1.401       .  A
C821        C822   1.407   1_455  A
C822        H829   1.084       .  S
C823        C824   1.398       .  A
C823        H830   1.084       .  S
C824        C825   1.408       .  A
C824        H831   1.083       .  S
C825        C826   1.409       .  A
C826        H832   1.084       .  S
C833        C834   1.407       .  A
C833        C838   1.411   1_556  A
C834        C835   1.396       .  A
C834        H843   1.083       .  S
C835        C836   1.401       .  A
C835        H844   1.084       .  S
C836        C842   1.403   1_556  A
C836        C837   1.412   1_556  A
C837        C839   1.405       .  A
C837        C838   1.408       .  A
C838        H845   1.084       .  S
C839        C840   1.402       .  A
C839        H846   1.083       .  S
C840        C841   1.406       .  A
C840        H847   1.083       .  S
C841        C842   1.408       .  A
C842        H848   1.084   1_554  S
C849        C850   1.405       .  A
C849        C854   1.402       .  A
C850        C851   1.392       .  A
C850        H859   1.084       .  S
C851        C852   1.399       .  A
C851        H860   1.084       .  S
C852        C858   1.397   1_554  A
C852        C853   1.415   1_554  A
C853        C855   1.400       .  A
C853        C854   1.398   1_556  A
C854        H861   1.085   1_554  S
C855        C856   1.393       .  A
C855        H862   1.084       .  S
C856        C857   1.405       .  A
C856        H863   1.084       .  S
C857        C858   1.400       .  A
C858        H864   1.085       .  S
C865        C866   1.407       .  A
C865        C870   1.406       .  A
C866        C867   1.399       .  A
C866        H875   1.083       .  S
C867        C868   1.402       .  A
C867        H876   1.084       .  S
C868        C874   1.409       .  A
C868        C869   1.414       .  A
C869        C871   1.400       .  A
C869        C870   1.405       .  A
C870        H877   1.084       .  S
C871        C872   1.396       .  A
C871        H878   1.084       .  S
C872        C873   1.408       .  A
C872        H879   1.083       .  S
C873        C874   1.408       .  A
C874        H880   1.084       .  S
C881        C882   1.407       .  A
C881        C886   1.406       .  A
C882        C883   1.399       .  A
C882        H891   1.083       .  S
C883        C884   1.403       .  A
C883        H892   1.084       .  S
C884        C890   1.405       .  A
C884        C885   1.413   1_556  A
C885        C887   1.401       .  A
C885        C886   1.402   1_554  A
C886        H893   1.084   1_556  S
C887        C888   1.395       .  A
C887        H894   1.084       .  S
C888        C889   1.405       .  A
C888        H895   1.083       .  S
C889        C890   1.409   1_554  A
C890        H896   1.084       .  S
C897        C898   1.403       .  A
C897        C902   1.411       .  A
C898        C899   1.398       .  A
C898        H907   1.083       .  S
C899        C900   1.404       .  A
C899        H908   1.084       .  S
C900        C906   1.398   1_554  A
C900        C901   1.409       .  A
C901        C903   1.404   1_554  A
C901        C902   1.398       .  A
C902        H909   1.084       .  S
C903        C904   1.398       .  A
C903        H910   1.084       .  S
C904        C905   1.404       .  A
C904        H911   1.083       .  S
C905        C906   1.411       .  A
C906        H912   1.084       .  S
C913        C914   1.409       .  A
C913        C918   1.408       .  A
C914        C915   1.398       .  A
C914        H923   1.083       .  S
C915        C916   1.401       .  A
C915        H924   1.084       .  S
C916        C922   1.409       .  A
C916        C917   1.414       .  A
C917        C919   1.401       .  A
C917        C918   1.408       .  A
C918        H925   1.084       .  S
C919        C920   1.397       .  A
C919        H926   1.084       .  S
C920        C921   1.409       .  A
C920        H927   1.083       .  S
C921        C922   1.408       .  A
C922        H928   1.084       .  S
C929        C930   1.408       .  A
C929        C934   1.408       .  A
C930        C931   1.394       .  A
C930        H939   1.083       .  S
C931        C932   1.399       .  A
C931        H940   1.084       .  S
C932        C938   1.403       .  A
C932        C933   1.414       .  A
C933        C935   1.403       .  A
C933        C934   1.409       .  A
C934        H941   1.084       .  S
C935        C936   1.400       .  A
C935        H942   1.084       .  S
C936        C937   1.408       .  A
C936        H943   1.083       .  S
C937        C938   1.405       .  A
C938        H944   1.084       .  S
C945        C946   1.405       .  A
C945        C950   1.406       .  A
C946        C947   1.396   1_565  A
C946        H955   1.083       .  S
C947        C948   1.402       .  A
C947        H956   1.084       .  S
C948        C954   1.400       .  A
C948        C949   1.413   1_545  A
C949        C951   1.401       .  A
C949        C950   1.399       .  A
C950        H957   1.084       .  S
C951        C952   1.394   1_565  A
C951        H958   1.084       .  S
C952        C953   1.406       .  A
C952        H959   1.083       .  S
C953        C954   1.406       .  A
C954        H960   1.084       .  S
C961        C962   1.403       .  A
C961        C966   1.408       .  A
C962        C963   1.400       .  A
C962        H971   1.083       .  S
C963        C964   1.406       .  A
C963        H972   1.084       .  S
C964        C970   1.399       .  A
C964        C965   1.410       .  A
C965        C967   1.402       .  A
C965        C966   1.393       .  A
C966        H973   1.084       .  S
C967        C968   1.393       .  A
C967        H974   1.084       .  S
C968        C969   1.403       .  A
C968        H975   1.083       .  S
C969        C970   1.411       .  A
C970        H976   1.084       .  S
C977        C978   1.408       .  A
C977        C982   1.407       .  A
C978        C979   1.397       .  A
C978        H987   1.083       .  S
C979        C980   1.401       .  A
C979        H988   1.084       .  S
C980        C986   1.406       .  A
C980        C981   1.414       .  A
C981        C983   1.401       .  A
C981        C982   1.407       .  A
C982        H989   1.084       .  S
C983        C984   1.398       .  A
C983        H990   1.084       .  S
C984        C985   1.408       .  A
C984        H991   1.083       .  S
C985        C986   1.407       .  A
C986        H992   1.084       .  S
C993        C994   1.405       .  A
C993        C998   1.409       .  A
C994        C995   1.394       .  A
C994       H1003   1.083       .  S
C995        C996   1.401       .  A
C995       H1004   1.084       .  S
C996       C1002   1.402       .  A
C996        C997   1.413       .  A
C997        C999   1.405       .  A
C997        C998   1.409       .  A
C998       H1005   1.084       .  S
C999       C1000   1.403       .  A
C999       H1006   1.083       .  S
C1000      C1001   1.407       .  A
C1000      H1007   1.083       .  S
C1001      C1002   1.408       .  A
C1002      H1008   1.084       .  S
C1009      C1010   1.408       .  A
C1009      C1014   1.407       .  A
C1010      C1011   1.399       .  A
C1010      H1019   1.083       .  S
C1011      C1012   1.402       .  A
C1011      H1020   1.084       .  S
C1012      C1018   1.407       .  A
C1012      C1013   1.414       .  A
C1013      C1015   1.401       .  A
C1013      C1014   1.406       .  A
C1014      H1021   1.084       .  S
C1015      C1016   1.397       .  A
C1015      H1022   1.084       .  S
C1016      C1017   1.407       .  A
C1016      H1023   1.083       .  S
C1017      C1018   1.408       .  A
C1018      H1024   1.084       .  S
C1025      C1026   1.407       .  A
C1025      C1030   1.409       .  A
C1026      C1027   1.399   1_545  A
C1026      H1035   1.083       .  S
C1027      C1028   1.403       .  A
C1027      H1036   1.084       .  S
C1028      C1034   1.407       .  A
C1028      C1029   1.413   1_565  A
C1029      C1031   1.402       .  A
C1029      C1030   1.406       .  A
C1030      H1037   1.084       .  S
C1031      C1032   1.399   1_545  A
C1031      H1038   1.084       .  S
C1032      C1033   1.407       .  A
C1032      H1039   1.083       .  S
C1033      C1034   1.409       .  A
C1034      H1040   1.084       .  S
C1041      C1042   1.404       .  A
C1041      C1046   1.405       .  A
C1042      C1043   1.402       .  A
C1042      H1051   1.083       .  S
C1043      C1044   1.406       .  A
C1043      H1052   1.083       .  S
C1044      C1050   1.406       .  A
C1044      C1045   1.412       .  A
C1045      C1047   1.400       .  A
C1045      C1046   1.398       .  A
C1046      H1053   1.085       .  S
C1047      C1048   1.393       .  A
C1047      H1054   1.084       .  S
C1048      C1049   1.406       .  A
C1048      H1055   1.083       .  S
C1049      C1050   1.411       .  A
C1050      H1056   1.084       .  S
C1057      C1058   1.406       .  A
C1057      C1062   1.406       .  A
C1058      C1059   1.395       .  A
C1058      H1067   1.083       .  S
C1059      C1060   1.400       .  A
C1059      H1068   1.084       .  S
C1060      C1066   1.404       .  A
C1060      C1061   1.415       .  A
C1061      C1063   1.402       .  A
C1061      C1062   1.408       .  A
C1062      H1069   1.084       .  S
C1063      C1064   1.399       .  A
C1063      H1070   1.084       .  S
C1064      C1065   1.408       .  A
C1064      H1071   1.083       .  S
C1065      C1066   1.405       .  A
C1066      H1072   1.084       .  S
C1073      C1074   1.410       .  A
C1073      C1078   1.406       .  A
C1074      C1075   1.394       .  A
C1074      H1083   1.083       .  S
C1075      C1076   1.398       .  A
C1075      H1084   1.084       .  S
C1076      C1082   1.405       .  A
C1076      C1077   1.415       .  A
C1077      C1079   1.400       .  A
C1077      C1078   1.406       .  A
C1078      H1085   1.084       .  S
C1079      C1080   1.396       .  A
C1079      H1086   1.084       .  S
C1080      C1081   1.410       .  A
C1080      H1087   1.083       .  S
C1081      C1082   1.405       .  A
C1082      H1088   1.084       .  S
C1089      C1090   1.405       .  A
C1089      C1094   1.409       .  A
C1090      C1091   1.393       .  A
C1090      H1099   1.083       .  S
C1091      C1092   1.401       .  A
C1091      H1100   1.084       .  S
C1092      C1098   1.395       .  A
C1092      C1093   1.411       .  A
C1093      C1095   1.404       .  A
C1093      C1094   1.400       .  A
C1094      H1101   1.084       .  S
C1095      C1096   1.399       .  A
C1095      H1102   1.083       .  S
C1096      C1097   1.404       .  A
C1096      H1103   1.083       .  S
C1097      C1098   1.408       .  A
C1098      H1104   1.084       .  S
C1105      C1106   1.408       .  A
C1105      C1110   1.408       .  A
C1106      C1107   1.399       .  A
C1106      H1115   1.083       .  S
C1107      C1108   1.402       .  A
C1107      H1116   1.084       .  S
C1108      C1114   1.408       .  A
C1108      C1109   1.414       .  A
C1109      C1111   1.402       .  A
C1109      C1110   1.410       .  A
C1110      H1117   1.084       .  S
C1111      C1112   1.400       .  A
C1111      H1118   1.084       .  S
C1112      C1113   1.409       .  A
C1112      H1119   1.083       .  S
C1113      C1114   1.410       .  A
C1114      H1120   1.084       .  S
