geometry optimzed in LAMMPS
_audit_creation_date              2020-12-01 
_audit_creation_method            'lammps2cif' 
_symmetry_space_group_name_H-M    'P1' 
_symmetry_Int_Tables_number       1 
_symmetry_cell_setting            triclinic 
loop_ 
_symmetry_equiv_pos_as_xyz 
  x,y,z 
_cell_length_a                    40.87812459 
_cell_length_b                    39.10273181357026 
_cell_length_c                    36.52763074741914 
_cell_angle_alpha                 89.57039508820223 
_cell_angle_beta                  90.3403334939967 
_cell_angle_gamma                 90.06386747922613 
loop_ 
_atom_site_label 
_atom_site_type_symbol 
_atom_site_fract_x 
_atom_site_fract_y 
_atom_site_fract_z 
_atom_site_charge 
O1          O  0.92836273  0.07043299  0.11755240    -0.86200
O2          O  0.88088179  0.06787279  0.17018261    -0.83300
C3          C  0.87835832  0.09867928  0.18084438     0.97300
O4          O  0.86773331  0.12105973  0.15872552    -0.83300
O5          O  0.84691203  0.15222096  0.09135436    -0.85900
C6          C  0.87161326  0.16058741  0.07196662     1.01800
O7          O  0.89297098  0.13839319  0.06623983    -0.78700
O8          O  0.92484172  0.07850308  0.05905814    -0.78900
C9          C  0.94102421  0.08184828  0.08855599     1.01700
O10         O  0.89290303  0.01929417  0.07343500    -0.86200
O11         O  0.84100089  0.02414714  0.12259996    -0.83300
C12         C  0.81669527  0.03651358  0.13940960     0.97300
O13         O  0.81856510  0.06751543  0.14972952    -0.83300
O14         O  0.80450737  0.09361938  0.08400145    -0.85900
C15         C  0.80643911  0.10327616  0.05150717     1.01700
O16         O  0.83378069  0.10975716  0.03690860    -0.78700
O17         O  0.86400668  0.04825535  0.03344613    -0.78900
C18         C  0.87780595  0.02096233  0.04289400     1.01700
Cr19       Cr  0.88474739  0.04744493  0.11955518     1.93700
Cr20       Cr  0.83694690  0.10725991  0.11964133     1.93200
Cr21       Cr  0.87819874  0.09290139  0.05198793     1.39100
O22         O  0.86674923  0.08265924  0.09712391    -1.24000
O23         O  0.63607952  0.17296119  0.83795866    -0.86200
O24         O  0.58247707  0.17119911  0.88306386    -0.83300
C25         C  0.56688281  0.16028539  0.91063603     0.97300
O26         O  0.57854935  0.16529527  0.94237311    -0.83300
O27         O  0.61059548  0.10605316  0.94438700    -0.85900
C28         C  0.63240523  0.08391197  0.94251357     1.01800
O29         O  0.65823849  0.09041166  0.92453135    -0.78700
O30         O  0.64492919  0.11953543  0.85408532    -0.78900
C31         C  0.63826686  0.14156878  0.82977265     1.01700
O32         O  0.67058843  0.21762156  0.88828886    -0.86200
O33         O  0.61341383  0.22481087  0.93010500    -0.83300
C34         C  0.62582780  0.22394428  0.96215743     0.97300
O35         O  0.63686315  0.19653124  0.97480985    -0.83300
O36         O  0.66573876  0.13525095  0.97911552    -0.85900
C37         C  0.69468558  0.13778609  0.96800033     1.01700
O38         O  0.70097417  0.14683805  0.93596107    -0.78700
O39         O  0.69449226  0.17167240  0.86785645    -0.78900
C40         C  0.69600305  0.20331376  0.87557272     1.01700
Cr41       Cr  0.62625613  0.19464450  0.88673958     1.93700
Cr42       Cr  0.62398412  0.15181758  0.95708684     1.93200
Cr43       Cr  0.67203296  0.13368608  0.89636090     1.39100
O44         O  0.64083037  0.16001555  0.91346796    -1.24000
O45         O  0.87922905  0.31886234  0.83745091    -0.86200
O46         O  0.92986344  0.32242426  0.88800186    -0.83300
C47         C  0.94301128  0.33367512  0.91696877     0.97300
O48         O  0.92837184  0.32952783  0.94706678    -0.83300
O49         O  0.89490551  0.38907353  0.94177651    -0.85900
C50         C  0.87228191  0.41028787  0.93711294     1.01800
O51         O  0.84712032  0.40071396  0.91905141    -0.78700
O52         O  0.86701632  0.37140994  0.85237786    -0.78900
C53         C  0.87546900  0.35013900  0.82852839     1.01700
O54         O  0.84380919  0.27318594  0.88671444    -0.86200
O55         O  0.89742614  0.26921399  0.93373563    -0.83300
C56         C  0.88286764  0.27017971  0.96447592     0.97300
O57         O  0.87008634  0.29747694  0.97500140    -0.83300
O58         O  0.83838493  0.35795419  0.97322899    -0.85900
C59         C  0.81053679  0.35030662  0.96049417     1.01700
O60         O  0.80725244  0.34019531  0.92838034    -0.78700
O61         O  0.81894084  0.31639450  0.86146723    -0.78900
C62         C  0.81847557  0.28498856  0.87112120     1.01700
Cr63       Cr  0.88677371  0.29791891  0.88799043     1.93700
Cr64       Cr  0.88223688  0.34258240  0.95626417     1.93200
Cr65       Cr  0.83749661  0.35593103  0.89128903     1.39100
O66         O  0.86894868  0.33214751  0.91185224    -1.24000
O67         O  0.58336121  0.41807220  0.11980613    -0.86200
O68         O  0.63406398  0.42181015  0.16991423    -0.83300
C69         C  0.63674571  0.39093033  0.18034601     0.97300
O70         O  0.64536692  0.36815325  0.15806405    -0.83300
O71         O  0.66168774  0.33707787  0.09019002    -0.85900
C72         C  0.63597467  0.32913187  0.07216595     1.01800
O73         O  0.61441509  0.35154837  0.06761626    -0.78700
O74         O  0.58371996  0.41302232  0.06098850    -0.78900
C75         C  0.56883520  0.40874991  0.09081621     1.01700
O76         O  0.61626114  0.46913687  0.07345494    -0.86200
O77         O  0.67103260  0.46530362  0.12092978    -0.83300
C78         C  0.69583272  0.45219868  0.13694683     0.97300
O79         O  0.69470972  0.42061739  0.14566659    -0.83300
O80         O  0.70480823  0.39452786  0.07900586    -0.85900
C81         C  0.70064538  0.38423286  0.04702984     1.01700
O82         O  0.67224935  0.37852719  0.03460211    -0.78700
O83         O  0.64385597  0.44125366  0.03256545    -0.78900
C84         C  0.62970600  0.46810084  0.04217514     1.01700
Cr85       Cr  0.62705681  0.44161787  0.11947658     1.93700
Cr86       Cr  0.67419999  0.38147583  0.11710444     1.93200
Cr87       Cr  0.62945646  0.39687073  0.05193862     1.39100
O88         O  0.64367882  0.40664268  0.09624081    -1.24000
O89         O  0.92635376  0.17067580  0.41651562    -0.86200
O90         O  0.89332559  0.15931068  0.35113765    -0.83300
C91         C  0.87584216  0.13872123  0.33292604     0.97300
O92         O  0.84974176  0.12674472  0.34590441    -0.83300
O93         O  0.85391628  0.08020496  0.40400722    -0.85900
C94         C  0.85796309  0.06931229  0.43642058     1.01800
O95         O  0.85824962  0.08993488  0.46236920    -0.78700
O96         O  0.91561483  0.12242030  0.44561241    -0.78900
C97         C  0.93586136  0.14203597  0.43013448     1.01700
O98         O  0.87031391  0.21579047  0.43892651    -0.86200
O99         O  0.84024829  0.20455519  0.37257932    -0.83300
C100        C  0.81038086  0.19585025  0.37406344     0.97300
O101        O  0.80295807  0.16615387  0.38532193    -0.83300
O102        O  0.80478461  0.11977465  0.44029583    -0.85900
C103        C  0.80469479  0.13593449  0.47008324     1.01700
O104        O  0.82970006  0.15168605  0.48177344    -0.78700
O105        O  0.89218486  0.18193488  0.47901712    -0.78900
C106        C  0.88040436  0.21055858  0.47118686     1.01700
Cr107      Cr  0.88121354  0.18488042  0.39656126     1.93700
Cr108      Cr  0.83062504  0.12521758  0.39541775     1.93200
Cr109      Cr  0.87300243  0.13777530  0.46318698     1.39100
O110        O  0.86159515  0.14932324  0.41766232    -1.24000
O111        O  0.63482559  0.06486076  0.67339118    -0.86200
O112        O  0.58044368  0.06244390  0.63108944    -0.83300
C113        C  0.56335008  0.07551064  0.60569132     0.97300
O114        O  0.57301845  0.07328185  0.57283509    -0.83300
O115        O  0.60780472  0.13022817  0.57055967    -0.85900
C116        C  0.63004433  0.15163509  0.56804869     1.01800
O117        O  0.65720794  0.14394915  0.58298207    -0.78700
O118        O  0.64412711  0.11756645  0.65443088    -0.78900
C119        C  0.63717846  0.09673671  0.67975831     1.01700
O120        O  0.66922744  0.01866320  0.62381820    -0.86200
O121        O  0.61216291  0.00935355  0.58304533    -0.83300
C122        C  0.62089825  0.01136706  0.54959054     0.97300
O123        O  0.62741578  0.03971159  0.53555282    -0.83300
O124        O  0.66093997  0.09787122  0.53085399    -0.85900
C125        C  0.69037622  0.09244544  0.54077952     1.01700
O126        O  0.69705805  0.08543948  0.57350408    -0.78700
O127        O  0.69309535  0.06468362  0.64389478    -0.78900
C128        C  0.69460582  0.03290269  0.63694328     1.01700
Cr129      Cr  0.62468086  0.04073654  0.62572775     1.93700
Cr130      Cr  0.61850597  0.08437208  0.55550401     1.93200
Cr131      Cr  0.67016096  0.10133816  0.61305339     1.39100
O132        O  0.63782265  0.07505716  0.59784895    -1.24000
O133        O  0.57531794  0.30257020  0.39672159    -0.86200
O134        O  0.61580565  0.32375215  0.34330314    -0.83300
C135        C  0.63293954  0.34846206  0.33257722     0.97300
O136        O  0.65534013  0.36000028  0.35296980    -0.83300
O137        O  0.64217082  0.39319691  0.42000728    -0.85900
C138        C  0.63374194  0.39640179  0.45328144     1.01800
O139        O  0.63308647  0.37064604  0.47343070    -0.78700
O140        O  0.58048442  0.34353387  0.43755900    -0.78900
C141        C  0.56453303  0.32971289  0.41198696     1.01700
O142        O  0.62984014  0.25351365  0.42130004    -0.86200
O143        O  0.66743423  0.27710953  0.36580374    -0.83300
C144        C  0.69623850  0.28700921  0.37298784     0.97300
O145        O  0.70040047  0.31507645  0.38969708    -0.83300
O146        O  0.68929526  0.34789157  0.45340276    -0.85900
C147        C  0.68693485  0.32590663  0.47886677     1.01700
O148        O  0.66139587  0.30763015  0.48312480    -0.78700
O149        O  0.59991859  0.27857594  0.46083951    -0.78900
C150        C  0.61560201  0.25279756  0.45162949     1.01700
Cr151      Cr  0.62298300  0.29137916  0.38445654     1.93700
Cr152      Cr  0.66910165  0.35189920  0.40452486     1.93200
Cr153      Cr  0.62007781  0.32443138  0.46000665     1.39100
O154        O  0.63776533  0.32257762  0.41565106    -1.24000
O155        O  0.87689842  0.41988550  0.66262409    -0.86200
O156        O  0.92414692  0.41202198  0.60917608    -0.83300
C157        C  0.93692679  0.39995768  0.58054212     0.97300
O158        O  0.91999147  0.40063852  0.55150925    -0.83300
O159        O  0.88962858  0.34016919  0.56777228    -0.85900
C160        C  0.86864055  0.31834554  0.57680393     1.01800
O161        O  0.84381669  0.32816375  0.59475893    -0.78700
O162        O  0.86510445  0.36553124  0.65625209    -0.78900
C163        C  0.87476051  0.38987214  0.67593850     1.01700
O164        O  0.83642512  0.45900152  0.61210170    -0.86200
O165        O  0.88673061  0.45894677  0.56011651    -0.83300
C166        C  0.87104610  0.45410880  0.53033643     0.97300
O167        O  0.85824806  0.42565478  0.52399296    -0.83300
O168        O  0.82946361  0.36472809  0.53557238    -0.85900
C169        C  0.80153174  0.37101030  0.54861476     1.01700
O170        O  0.79925575  0.38313249  0.58013349    -0.78700
O171        O  0.81416728  0.41665750  0.64220190    -0.78900
C172        C  0.81282818  0.44763537  0.63118583     1.01700
Cr173      Cr  0.88015308  0.43522422  0.60965253     1.93700
Cr174      Cr  0.87362782  0.38383486  0.54776501     1.93200
Cr175      Cr  0.83304617  0.37489583  0.61689550     1.39100
O176        O  0.86197568  0.39821788  0.59131903    -1.24000
O177        O  0.07677119  0.17499267  0.11675158    -0.86200
O178        O  0.12726561  0.17767321  0.16785649    -0.83300
C179        C  0.13051392  0.14696115  0.17919271     0.97300
O180        O  0.13935105  0.12394819  0.15748597    -0.83300
O181        O  0.15478694  0.09028197  0.09160384    -0.85900
C182        C  0.12862927  0.08158670  0.07478501     1.01800
O183        O  0.10754197  0.10425137  0.06931273    -0.78700
O184        O  0.07775918  0.16556236  0.05848763    -0.78900
C185        C  0.06241120  0.16408272  0.08825553     1.01700
O186        O  0.11252800  0.22347217  0.06890386    -0.86200
O187        O  0.16557174  0.21990245  0.11747411    -0.83300
C188        C  0.19058679  0.20711738  0.13318694     0.97300
O189        O  0.18949464  0.17577145  0.14315492    -0.83300
O190        O  0.19800579  0.14686853  0.07759536    -0.85900
C191        C  0.19396502  0.13480220  0.04639158     1.01700
O192        O  0.16568069  0.12854689  0.03404918    -0.78700
O193        O  0.13778012  0.19144913  0.02894723    -0.78900
C194        C  0.12608379  0.21981909  0.03784936     1.01700
Cr195      Cr  0.12135088  0.19679051  0.11630324     1.93700
Cr196      Cr  0.16793182  0.13573744  0.11630198     1.93200
Cr197      Cr  0.12311191  0.14842456  0.05082371     1.39100
O198        O  0.13750377  0.16045808  0.09454572    -1.24000
O199        O  0.37218666  0.07079355  0.84640860    -0.86200
O200        O  0.42541068  0.07682266  0.89196228    -0.83300
C201        C  0.44082342  0.09046344  0.91822938     0.97300
O202        O  0.42922664  0.08781998  0.95029942    -0.83300
O203        O  0.39544083  0.14440527  0.94368600    -0.85900
C204        C  0.37334559  0.16596101  0.94273373     1.01800
O205        O  0.34715116  0.15864210  0.92544538    -0.78700
O206        O  0.36250579  0.12507247  0.85734361    -0.78900
C207        C  0.36933576  0.10147079  0.83526430     1.01700
O208        O  0.33840347  0.02884629  0.89975456    -0.86200
O209        O  0.39459240  0.02622187  0.94390812    -0.83300
C210        C  0.38170724  0.02937038  0.97540996     0.97300
O211        O  0.37133081  0.05768410  0.98556688    -0.83300
O212        O  0.34005943  0.11752231  0.98236220    -0.85900
C213        C  0.31140601  0.11225736  0.97061371     1.01700
O214        O  0.30625147  0.10115197  0.93923399    -0.78700
O215        O  0.31378900  0.07261843  0.87426326    -0.78900
C216        C  0.31302259  0.04139644  0.88452185     1.01700
Cr217      Cr  0.38208304  0.05270547  0.89719743     1.93700
Cr218      Cr  0.38303610  0.10069142  0.96272357     1.93200
Cr219      Cr  0.33507403  0.11307736  0.89988181     1.39100
O220        O  0.36649166  0.08855213  0.92012528    -1.24000
O221        O  0.13000148  0.42553734  0.83869151    -0.86200
O222        O  0.07928463  0.42112681  0.88965871    -0.83300
C223        C  0.06547478  0.41156017  0.91896462     0.97300
O224        O  0.08088295  0.41536847  0.94848085    -0.83300
O225        O  0.11174545  0.35239335  0.94040771    -0.85900
C226        C  0.13363275  0.33069420  0.93370077     1.01800
O227        O  0.15915285  0.34030565  0.91689897    -0.78700
O228        O  0.14349299  0.37242037  0.85090317    -0.78900
C229        C  0.13402696  0.39474547  0.82830914     1.01700
O230        O  0.16650987  0.46869211  0.89029675    -0.86200
O231        O  0.11387088  0.47201646  0.93707780    -0.83300
C232        C  0.12718221  0.46933733  0.96876731     0.97300
O233        O  0.13975739  0.44141247  0.97828515    -0.83300
O234        O  0.16832212  0.37940230  0.97567162    -0.85900
C235        C  0.19673352  0.38612128  0.96459476     1.01700
O236        O  0.20122518  0.39642080  0.93241880    -0.78700
O237        O  0.19207328  0.42576955  0.86621966    -0.78900
C238        C  0.19226650  0.45687319  0.87605927     1.01700
Cr239      Cr  0.12318667  0.44469507  0.89028614     1.93700
Cr240      Cr  0.12595876  0.39789057  0.95739165     1.93200
Cr241      Cr  0.17145083  0.38533845  0.89274446     1.39100
O242        O  0.14028040  0.40928834  0.91342988    -1.24000
O243        O  0.42804118  0.31818859  0.10552367    -0.86200
O244        O  0.38984349  0.32944179  0.16626284    -0.83300
C245        C  0.37267438  0.35184961  0.18172463     0.97300
O246        O  0.34928249  0.36652985  0.16536621    -0.83300
O247        O  0.35761651  0.40995580  0.10497498    -0.85900
C248        C  0.36344529  0.41882941  0.07225945     1.01800
O249        O  0.36446752  0.39671349  0.04786417    -0.78700
O250        O  0.42072050  0.36485935  0.07152338    -0.78900
C251        C  0.43905887  0.34572039  0.09059163     1.01700
O252        O  0.37244559  0.27362348  0.07749072    -0.86200
O253        O  0.33779198  0.28590250  0.13891749    -0.83300
C254        C  0.30840812  0.29605582  0.13516454     0.97300
O255        O  0.30289118  0.32634318  0.12440515    -0.83300
O256        O  0.30983908  0.36878957  0.06653385    -0.85900
C257        C  0.31164457  0.35001197  0.03854046     1.01700
O258        O  0.33717797  0.33368263  0.03064839    -0.78700
O259        O  0.39911662  0.30471154  0.03940611    -0.78900
C260        C  0.38516727  0.27719104  0.04647917     1.01700
Cr261      Cr  0.38108668  0.30446174  0.12008103     1.93700
Cr262      Cr  0.33272999  0.36591573  0.11424410     1.93200
Cr263      Cr  0.37906164  0.34910855  0.05141931     1.39100
O264        O  0.36447342  0.34009299  0.09631375    -1.24000
O265        O  0.08092777  0.07621982  0.39282323    -0.86200
O266        O  0.13012457  0.07077778  0.34016177    -0.83300
C267        C  0.13404938  0.10214667  0.33138401     0.97300
O268        O  0.14320219  0.12265585  0.35556965    -0.83300
O269        O  0.16804211  0.15074606  0.41978137    -0.85900
C270        C  0.14339933  0.16070986  0.43797018     1.01800
O271        O  0.12170902  0.13952186  0.44595297    -0.78700
O272        O  0.08497536  0.08383253  0.45218285    -0.78900
C273        C  0.06836980  0.08586549  0.42264866     1.01700
O274        O  0.11073048  0.02354481  0.43746866    -0.86200
O275        O  0.16440951  0.02336054  0.38998178    -0.83300
C276        C  0.18975918  0.03403392  0.37368784     0.97300
O277        O  0.18951738  0.06484166  0.36204288    -0.83300
O278        O  0.20681625  0.08917291  0.42651816    -0.85900
C279        C  0.20605356  0.09757904  0.45928490     1.01700
O280        O  0.17931985  0.10543158  0.47463501    -0.78700
O281        O  0.14368987  0.04711273  0.47656239    -0.78900
C282        C  0.12536370  0.02279473  0.46829347     1.01700
Cr283      Cr  0.12279434  0.05028155  0.39129218     1.93700
Cr284      Cr  0.17456106  0.10572282  0.39207057     1.93200
Cr285      Cr  0.13313658  0.09313269  0.45945672     1.39100
O286        O  0.14335784  0.08320327  0.41438770    -1.24000
O287        O  0.36975864  0.16754174  0.67307477    -0.86200
O288        O  0.42568670  0.16571793  0.63322815    -0.83300
C289        C  0.44344508  0.15426877  0.60799221     0.97300
O290        O  0.43384950  0.15801786  0.57510629    -0.83300
O291        O  0.40381638  0.09800493  0.57752759    -0.85900
C292        C  0.38261637  0.07537136  0.57579738     1.01800
O293        O  0.35483650  0.08112116  0.59009589    -0.78700
O294        O  0.36313858  0.11350149  0.65892315    -0.78900
C295        C  0.36850154  0.13630504  0.68233682     1.01700
O296        O  0.33763783  0.20920135  0.61794891    -0.86200
O297        O  0.39575911  0.21542675  0.57985567    -0.83300
C298        C  0.38446051  0.21282614  0.54744571     0.97300
O299        O  0.37651037  0.18430453  0.53508781    -0.83300
O300        O  0.34974385  0.12179715  0.53334155    -0.85900
C301        C  0.31989152  0.12446961  0.54164966     1.01700
O302        O  0.31127898  0.13534374  0.57221807    -0.78700
O303        O  0.31239854  0.16392084  0.63937175    -0.78900
C304        C  0.31170927  0.19560285  0.63035924     1.01700
Cr305      Cr  0.38178797  0.18749064  0.62421805     1.93700
Cr306      Cr  0.38979896  0.14152073  0.55782648     1.93200
Cr307      Cr  0.33786231  0.12505285  0.61476392     1.39100
O308        O  0.36942306  0.15166158  0.59865762    -1.24000
O309        O  0.12979063  0.31614386  0.66721138    -0.86200
O310        O  0.07937217  0.32066340  0.61457641    -0.83300
C311        C  0.06561062  0.33055518  0.58515425     0.97300
O312        O  0.08134064  0.32771168  0.55563434    -0.83300
O313        O  0.11093913  0.38640147  0.57095021    -0.85900
C314        C  0.13170388  0.40932982  0.57207205     1.01800
O315        O  0.15885404  0.40257502  0.58802866    -0.78700
O316        O  0.14224266  0.36920792  0.65411558    -0.78900
C317        C  0.13408705  0.34700446  0.67734577     1.01700
O318        O  0.16634229  0.27297304  0.61670686    -0.86200
O319        O  0.11523916  0.27080454  0.56760682    -0.83300
C320        C  0.13008109  0.27386764  0.53697545     0.97300
O321        O  0.14178411  0.30221241  0.52721240    -0.83300
O322        O  0.17138207  0.36489034  0.53247566    -0.85900
C323        C  0.19989926  0.35923676  0.54542229     1.01700
O324        O  0.20272524  0.34620152  0.57654246    -0.78700
O325        O  0.19253926  0.31566181  0.64110732    -0.78900
C326        C  0.19232126  0.28429120  0.63122978     1.01700
Cr327      Cr  0.12341433  0.29720245  0.61522629     1.93700
Cr328      Cr  0.12733333  0.34463547  0.54917066     1.93200
Cr329      Cr  0.17171792  0.35693203  0.61416059     1.39100
O330        O  0.14142900  0.33217767  0.59262298    -1.24000
O331        O  0.42968360  0.42541346  0.40251461    -0.86200
O332        O  0.38670430  0.41471473  0.34731193    -0.83300
C333        C  0.37190303  0.38915639  0.33451246     0.97300
O334        O  0.35154209  0.37275741  0.35376830    -0.83300
O335        O  0.36225905  0.33411930  0.41812266    -0.85900
C336        C  0.36980967  0.32802972  0.45125434     1.01800
O337        O  0.37025893  0.35204904  0.47321402    -0.78700
O338        O  0.42429347  0.38035896  0.43909084    -0.78900
C339        C  0.44024217  0.39659433  0.41497082     1.01700
O340        O  0.37752996  0.47242714  0.43622181    -0.86200
O341        O  0.33717434  0.45823363  0.37970370    -0.83300
C342        C  0.30858553  0.44582617  0.38262138     0.97300
O343        O  0.30541475  0.41488217  0.39209756    -0.83300
O344        O  0.31516805  0.37856602  0.45399692    -0.85900
C345        C  0.31842839  0.39890790  0.48075119     1.01700
O346        O  0.34473800  0.41539687  0.48651208    -0.78700
O347        O  0.40848391  0.44199255  0.47030696    -0.78900
C348        C  0.39331206  0.46907043  0.46560798     1.01700
Cr349      Cr  0.38200434  0.44029885  0.39360156     1.93700
Cr350      Cr  0.33630324  0.37712675  0.40525710     1.93200
Cr351      Cr  0.38549009  0.39833186  0.46353058     1.39100
O352        O  0.36771096  0.40514529  0.41975591    -1.24000
C353        C  0.26051365  0.35468970  0.53829098    -0.02700
C354        C  0.23072551  0.37098365  0.52787074     0.07000
C355        C  0.23225622  0.40189055  0.50732365    -0.02800
C356        C  0.26284853  0.41560538  0.49739042    -0.02800
C357        C  0.29176296  0.39841033  0.50690793     0.07100
C358        C  0.29060887  0.36957495  0.52965205    -0.03000
Br359      Br  0.33101029  0.34922048  0.54685418    -0.01600
Br360      Br  0.26157937  0.30993408  0.56101593    -0.01600
Br361      Br  0.26607583  0.45836624  0.47106128    -0.01600
Br362      Br  0.19353338  0.42546639  0.49095441    -0.01600
C363        C  0.24925594  0.20376533  0.62601034    -0.02700
C364        C  0.28066378  0.21711462  0.63450123     0.07000
C365        C  0.28225481  0.25175859  0.64566571    -0.02800
C366        C  0.25378964  0.27291636  0.64667150    -0.02800
C367        C  0.22239618  0.26045614  0.63552095     0.07100
C368        C  0.22075825  0.22489090  0.62619374    -0.03000
Br369      Br  0.17964861  0.20299474  0.61355142    -0.01600
Br370      Br  0.24475081  0.15618370  0.61254405    -0.01600
Br371      Br  0.25941566  0.31933702  0.66332909    -0.01600
Br372      Br  0.32380193  0.27047612  0.66143183    -0.01600
C373        C  0.40869881  0.26190272  0.51315266    -0.02700
C374        C  0.38122132  0.24235631  0.52239692     0.07000
C375        C  0.35100759  0.24858049  0.50454960    -0.02800
C376        C  0.34871341  0.27326701  0.47630752    -0.02800
C377        C  0.37593643  0.29389808  0.46767693     0.07100
C378        C  0.40580177  0.28836604  0.48709715    -0.03000
Br379      Br  0.44243660  0.31885503  0.48207796    -0.01600
Br380      Br  0.45029416  0.25285647  0.53688858    -0.01600
Br381      Br  0.30715969  0.28161206  0.45253516    -0.01600
Br382      Br  0.31180938  0.22645161  0.52228794    -0.01600
C383        C  0.39858078  0.05554946  0.51298218    -0.02700
C384        C  0.38783433  0.04745184  0.54910646     0.07000
C385        C  0.38235419  0.01312962  0.55868317    -0.02800
C386        C  0.38707574  0.48664124  0.53191500    -0.02800
C387        C  0.39324082  0.49543420  0.49468482     0.07100
C388        C  0.39899184  0.03028924  0.48581509    -0.03000
Br389      Br  0.41024400  0.04249877  0.43598102    -0.01600
Br390      Br  0.41419807  0.10064551  0.49934431    -0.01600
Br391      Br  0.38589112  0.43966592  0.54838884    -0.01600
Br392      Br  0.37067538  0.00152933  0.60838224    -0.01600
C393        C  0.21723538  0.47408421  0.37367352    -0.02700
C394        C  0.21994743  0.01108127  0.37016968     0.07000
C395        C  0.25187080  0.02497279  0.36548323    -0.02800
C396        C  0.28043494  0.00452427  0.37036963    -0.02800
C397        C  0.27791377  0.46785759  0.37582857     0.07100
C398        C  0.24575007  0.45326041  0.37636565    -0.03000
Br399      Br  0.23883308  0.40433843  0.38166623    -0.01600
Br400      Br  0.17488536  0.45173282  0.37452264    -0.01600
Br401      Br  0.32221507  0.02804186  0.37090602    -0.01600
Br402      Br  0.25775831  0.07218554  0.35089143    -0.01600
C403        C  0.10918805  0.20572218  0.46710171    -0.02700
C404        C  0.14057792  0.19502062  0.45546757     0.07000
C405        C  0.16831231  0.21230915  0.46945517    -0.02800
C406        C  0.16463697  0.23779345  0.49623053    -0.02800
C407        C  0.13355973  0.24508796  0.51098126     0.07100
C408        C  0.10593550  0.22834283  0.49662058    -0.03000
Br409      Br  0.06367192  0.23458967  0.51816846    -0.01600
Br410      Br  0.07013950  0.19045774  0.44176067    -0.01600
Br411      Br  0.20292993  0.26093183  0.51478726    -0.01600
Br412      Br  0.21174304  0.20122891  0.45373815    -0.01600
C413        C  0.12897137  0.99951876  0.53299819    -0.02700
C414        C  0.12177106  0.49384560  0.49544066     0.07000
C415        C  0.11191249  0.46065232  0.48539559    -0.02800
C416        C  0.11265634  0.43390702  0.51144292    -0.02800
C417        C  0.12641415  0.43919404  0.54706320     0.07100
C418        C  0.13427920  0.47261938  0.55769523    -0.03000
Br419      Br  0.14965441  0.48107746  0.60684859    -0.01600
Br420      Br  0.12861275  0.04488350  0.55376806    -0.01600
Br421      Br  0.09577730  0.38989675  0.49589061    -0.01600
Br422      Br  0.09826088  0.45047602  0.43574539    -0.01600
C423        C  0.27138262  0.08864310  0.53089295    -0.02700
C424        C  0.29454203  0.11221458  0.51728371     0.07000
C425        C  0.29134293  0.12619802  0.48208395    -0.02800
C426        C  0.26262996  0.12024696  0.46227503    -0.02800
C427        C  0.23724721  0.10059999  0.47824288     0.07100
C428        C  0.24258772  0.08283670  0.51121831    -0.03000
Br429      Br  0.21194753  0.04874888  0.52794320    -0.01600
Br430      Br  0.27940416  0.06350270  0.57586155    -0.01600
Br431      Br  0.25853122  0.14008040  0.41386423    -0.01600
Br432      Br  0.32535412  0.15481290  0.46179193    -0.01600
C433        C  0.37439447  0.33508894  0.24779903    -0.02700
C434        C  0.37866759  0.36034030  0.22058122     0.07000
C435        C  0.38478019  0.39437743  0.23079299    -0.02800
C436        C  0.38441705  0.40373435  0.26802719    -0.02800
C437        C  0.37758773  0.37881846  0.29561169     0.07100
C438        C  0.37407598  0.34411562  0.28507449    -0.03000
Br439      Br  0.36913334  0.30802893  0.32106825    -0.01600
Br440      Br  0.36627361  0.28822651  0.23385647    -0.01600
Br441      Br  0.39148213  0.45142119  0.27955762    -0.01600
Br442      Br  0.39337534  0.42831195  0.19322953    -0.01600
C443        C  0.15833532  0.39172935  0.76568503    -0.02700
C444        C  0.13170088  0.38486748  0.78895384     0.07000
C445        C  0.10594215  0.36393759  0.77598965    -0.02800
C446        C  0.10641586  0.35090033  0.73978099    -0.02800
C447        C  0.13330277  0.35769817  0.71664330     0.07100
C448        C  0.15965608  0.37742153  0.73044651    -0.03000
Br449      Br  0.19941487  0.38267809  0.70241754    -0.01600
Br450      Br  0.19397465  0.42011900  0.78219660    -0.01600
Br451      Br  0.07001363  0.32442340  0.72185307    -0.01600
Br452      Br  0.06986951  0.35354917  0.80796325    -0.01600
C453        C  0.25553747  0.39361440  0.97717374    -0.02700
C454        C  0.22556896  0.37830892  0.98701946     0.07000
C455        C  0.22509146  0.35130872  0.01297600    -0.02800
C456        C  0.25474176  0.33745906  0.02516791    -0.02800
C457        C  0.28438592  0.35177102  0.01356019     0.07100
C458        C  0.28487932  0.37888192  0.98841162    -0.03000
Br459      Br  0.32593064  0.39721102  0.97113740    -0.01600
Br460      Br  0.25667116  0.43794810  0.95384488    -0.01600
Br461      Br  0.25531073  0.29886959  0.05801455    -0.01600
Br462      Br  0.18508222  0.33514561  0.03530408    -0.01600
C463        C  0.39796478  0.12439957  0.77987135    -0.02700
C464        C  0.37026566  0.10896264  0.79574794     0.07000
C465        C  0.34272284  0.10135391  0.77376558    -0.02800
C466        C  0.34235417  0.11048323  0.73663011    -0.02800
C467        C  0.36972693  0.12668531  0.72108374     0.07100
C468        C  0.39759565  0.13363816  0.74260203    -0.03000
Br469      Br  0.43553086  0.15490345  0.72093931    -0.01600
Br470      Br  0.43707991  0.13101532  0.80835731    -0.01600
Br471      Br  0.30334102  0.10262896  0.70751072    -0.01600
Br472      Br  0.30503205  0.07850707  0.79373232    -0.01600
C473        C  0.28344019  0.48565526  0.87055977    -0.02700
C474        C  0.28227815  0.01988130  0.87816966     0.07000
C475        C  0.25057449  0.03479636  0.87960610    -0.02800
C476        C  0.22180757  0.01483480  0.87497553    -0.02800
C477        C  0.22288771  0.47925740  0.87218528     0.07100
C478        C  0.25474278  0.46506831  0.86717994    -0.03000
Br479      Br  0.26057572  0.41705235  0.85638450    -0.01600
Br480      Br  0.32572258  0.46487278  0.86287204    -0.01600
Br481      Br  0.18026458  0.03841226  0.87077677    -0.01600
Br482      Br  0.24509839  0.08265343  0.89042640    -0.01600
C483        C  0.40465634  0.98824321  0.02202241    -0.02700
C484        C  0.37710096  0.50236943  0.00162113     0.07000
C485        C  0.34513710  0.49264500  0.01198030    -0.02800
C486        C  0.34031622  0.46923212  0.04095836    -0.02800
C487        C  0.36733284  0.45434375  0.05912382     0.07100
C488        C  0.39913700  0.46569645  0.05028230    -0.03000
Br489      Br  0.43607389  0.44685595  0.07641826    -0.01600
Br490      Br  0.44822376  0.00292107  0.00952261    -0.01600
Br491      Br  0.29659555  0.45562507  0.05448087    -0.01600
Br492      Br  0.30782104  0.51013352  0.98505562    -0.01600
C493        C  0.38750655  0.18891365  0.00500808    -0.02700
C494        C  0.37661510  0.19518476  0.96835846     0.07000
C495        C  0.37168150  0.22906901  0.95661267    -0.02800
C496        C  0.37548572  0.25626419  0.98158712    -0.02800
C497        C  0.38384398  0.24954535  0.01882774     0.07100
C498        C  0.39101295  0.21592750  0.02982375    -0.03000
Br499      Br  0.40877114  0.20715175  0.07833710    -0.01600
Br500      Br  0.39860931  0.14362477  0.02296947    -0.01600
Br501      Br  0.36962050  0.30237631  0.96367229    -0.01600
Br502      Br  0.36258137  0.23820465  0.90555562    -0.01600
C503        C  0.15025737  0.14301507  0.28055352    -0.02700
C504        C  0.13101579  0.11478588  0.29270570     0.07000
C505        C  0.10987593  0.09871106  0.26729279    -0.02800
C506        C  0.10990928  0.10889104  0.23011606    -0.02800
C507        C  0.12763906  0.13812575  0.21872077     0.07100
C508        C  0.14664184  0.15600234  0.24467503    -0.03000
Br509      Br  0.17005401  0.19715671  0.23086776    -0.01600
Br510      Br  0.18517030  0.16195372  0.31046532    -0.01600
Br511      Br  0.08616722  0.08187298  0.19477113    -0.01600
Br512      Br  0.07983250  0.06343393  0.28290323    -0.01600
C513        C  0.25320959  0.21521945  0.13326778    -0.02700
C514        C  0.22144277  0.22873278  0.13941484     0.07000
C515        C  0.21968702  0.26353374  0.15005748    -0.02800
C516        C  0.24835732  0.28434293  0.15228228    -0.02800
C517        C  0.27948172  0.27181763  0.14141107     0.07100
C518        C  0.28149695  0.23650792  0.13287768    -0.03000
Br519      Br  0.32254156  0.21663090  0.11787174    -0.01600
Br520      Br  0.25906941  0.16726627  0.12451314    -0.01600
Br521      Br  0.24487487  0.32978829  0.17227712    -0.01600
Br522      Br  0.17805804  0.28275903  0.16356995    -0.01600
C523        C  0.15175379  0.02494942  0.05181751    -0.02700
C524        C  0.12525268  0.04800571  0.05441219     0.07000
C525        C  0.09741867  0.04165590  0.03177004    -0.02800
C526        C  0.09830021  0.51741685  0.00185807    -0.02800
C527        C  0.12666797  0.49757774  0.99654851     0.07100
C528        C  0.15317817  0.00087693  0.02307716    -0.03000
Br529      Br  0.19234243  0.97338838  0.01883505    -0.01600
Br530      Br  0.18443183  0.02279471  0.09000959    -0.01600
Br531      Br  0.05924621  0.50835132  0.97324588    -0.01600
Br532      Br  0.05593229  0.06306025  0.04191294    -0.01600
C533        C  0.15855163  0.25694930  0.99565924    -0.02700
C534        C  0.12786721  0.24789045  0.01037935     0.07000
C535        C  0.09922185  0.26098332  0.99390202    -0.02800
C536        C  0.10140178  0.28368288  0.96381969    -0.02800
C537        C  0.13200589  0.29643313  0.95230582     0.07100
C538        C  0.16072255  0.28062561  0.96639604    -0.03000
Br539      Br  0.20335389  0.29006257  0.94597879    -0.01600
Br540      Br  0.19803261  0.23879241  0.01778424    -0.01600
Br541      Br  0.06313094  0.29331312  0.93460049    -0.01600
Br542      Br  0.05693103  0.24784400  0.01225039    -0.01600
C543        C  0.24874359  0.10913475  0.04359271    -0.02700
C544        C  0.22297856  0.12686728  0.02578821     0.07000
C545        C  0.22712964  0.14120114  0.99083555    -0.02800
C546        C  0.25782563  0.13970335  0.97465427    -0.02800
C547        C  0.28313288  0.12094489  0.99190716     0.07100
C548        C  0.27901312  0.10634181  0.02662951    -0.03000
Br549      Br  0.31439530  0.08209383  0.05069868    -0.01600
Br550      Br  0.24246377  0.08664785  0.09024511    -0.01600
Br551      Br  0.26576403  0.16552098  0.93014399    -0.01600
Br552      Br  0.19120981  0.16267175  0.96484839    -0.01600
C553        C  0.99382782  0.39023067  0.60929461    -0.02700
C554        C  0.97074322  0.38366797  0.58086381     0.07000
C555        C  0.97980942  0.35966000  0.55346334    -0.02800
C556        C  0.00975739  0.34151698  0.55596228    -0.02800
C557        C  0.03230039  0.34746121  0.58476607     0.07100
C558        C  0.02439188  0.37292667  0.61064540    -0.03000
Br559      Br  0.05689494  0.38727567  0.64595505    -0.01600
Br560      Br  0.98536705  0.42460183  0.64582925    -0.01600
Br561      Br  0.01909956  0.30764301  0.51946340    -0.01600
Br562      Br  0.95196393  0.35009848  0.51146126    -0.01600
C563        C  0.50352308  0.32746921  0.39941000    -0.02700
C564        C  0.53281863  0.34619824  0.40144079     0.07000
C565        C  0.53126404  0.38231500  0.39751571    -0.02800
C566        C  0.50102020  0.39969554  0.39991403    -0.02800
C567        C  0.47176440  0.38082031  0.40276180     0.07100
C568        C  0.47331714  0.34489139  0.39783370    -0.03000
Br569      Br  0.43425258  0.31953419  0.38653304    -0.01600
Br570      Br  0.50422817  0.27820006  0.40140677    -0.01600
Br571      Br  0.50026322  0.44898249  0.40075881    -0.01600
Br572      Br  0.57047011  0.40796445  0.38714659    -0.01600
C573        C  0.74501792  0.31838576  0.48993430    -0.02700
C574        C  0.71426007  0.32634766  0.50463194     0.07000
C575        C  0.71216722  0.35057633  0.53264486    -0.02800
C576        C  0.74022187  0.36853341  0.54372646    -0.02800
C577        C  0.77134053  0.35973226  0.52962227     0.07100
C578        C  0.77316865  0.33598612  0.50075538    -0.03000
Br579      Br  0.81265188  0.32940178  0.47228641    -0.01600
Br580      Br  0.74839388  0.28546522  0.45188229    -0.01600
Br581      Br  0.73419409  0.40966657  0.57177550    -0.01600
Br582      Br  0.66987980  0.36222349  0.55239527    -0.01600
C583        C  0.50200745  0.07886850  0.61637027    -0.02700
C584        C  0.53267223  0.09508461  0.61426296     0.07000
C585        C  0.53373502  0.13081913  0.62101487    -0.02800
C586        C  0.50481672  0.15076133  0.61868623    -0.02800
C587        C  0.47420126  0.13457885  0.61641644     0.07100
C588        C  0.47339832  0.09861033  0.62144342    -0.03000
Br589      Br  0.43667157  0.07757769  0.64535428    -0.01600
Br590      Br  0.49926192  0.02979963  0.61422070    -0.01600
Br591      Br  0.50675719  0.19995032  0.62074654    -0.01600
Br592      Br  0.57328586  0.15208150  0.63821375    -0.01600
C593        C  0.75771878  0.02753975  0.64038141    -0.02700
C594        C  0.72609252  0.01250327  0.64349053     0.07000
C595        C  0.72377669  0.47665553  0.65216543    -0.02800
C596        C  0.75256998  0.45612344  0.65127720    -0.02800
C597        C  0.78329918  0.47027118  0.64049257     0.07100
C598        C  0.78507932  0.50660645  0.63843896    -0.03000
Br599      Br  0.82849636  0.02903865  0.63473846    -0.01600
Br600      Br  0.76290785  0.07678494  0.63904946    -0.01600
Br601      Br  0.74881674  0.40889314  0.66706934    -0.01600
Br602      Br  0.68316794  0.45637915  0.66839893    -0.01600
C603        C  0.59630640  0.45759854  0.52117598    -0.02700
C604        C  0.62280113  0.47956961  0.52784006     0.07000
C605        C  0.65162201  0.47573505  0.50689752    -0.02800
C606        C  0.65375433  0.45117531  0.47900725    -0.02800
C607        C  0.62728644  0.42921277  0.47207670     0.07100
C608        C  0.59856418  0.43248004  0.49368417    -0.03000
Br609      Br  0.56220310  0.40177457  0.48719057    -0.01600
Br610      Br  0.55702281  0.46170659  0.54988016    -0.01600
Br611      Br  0.69437881  0.44522076  0.45295790    -0.01600
Br612      Br  0.68872824  0.00766713  0.50897297    -0.01600
C613        C  0.65327351  0.19776976  0.52630966    -0.02700
C614        C  0.62565186  0.18087727  0.54130907     0.07000
C615        C  0.59438062  0.18736424  0.52459194    -0.02800
C616        C  0.59140704  0.20943230  0.49401872    -0.02800
C617        C  0.61921258  0.22437575  0.47847121     0.07100
C618        C  0.65000438  0.21740229  0.49397068    -0.03000
Br619      Br  0.68809899  0.23326650  0.46939032    -0.01600
Br620      Br  0.69617193  0.19515977  0.54894223    -0.01600
Br621      Br  0.54923543  0.21766299  0.47120741    -0.01600
Br622      Br  0.55427391  0.16702235  0.54183208    -0.01600
C623        C  0.99036881  0.13590933  0.39738801    -0.02700
C624        C  0.97088141  0.13056903  0.42882370     0.07000
C625        C  0.98390641  0.11055657  0.45801127    -0.02800
C626        C  0.01418211  0.09368343  0.45441041    -0.02800
C627        C  0.03420524  0.09988281  0.42363109     0.07100
C628        C  0.02220226  0.12175080  0.39540573    -0.03000
Br629      Br  0.04951279  0.13412169  0.35435911    -0.01600
Br630      Br  0.97344742  0.16135822  0.35591394    -0.01600
Br631      Br  0.02643577  0.05961700  0.49066005    -0.01600
Br632      Br  0.96157086  0.10750686  0.50454383    -0.01600
C633        C  0.78621367  0.25665451  0.36719859    -0.02700
C634        C  0.78276235  0.22060159  0.36415836     0.07000
C635        C  0.75134274  0.20808513  0.35439101    -0.02800
C636        C  0.72310187  0.22919509  0.35644546    -0.02800
C637        C  0.72603238  0.26489101  0.36375219     0.07100
C638        C  0.75837663  0.27849304  0.36485744    -0.03000
Br639      Br  0.76558077  0.32745405  0.36356276    -0.01600
Br640      Br  0.82857789  0.27705274  0.37602777    -0.01600
Br641      Br  0.68093543  0.20739580  0.35060013    -0.01600
Br642      Br  0.74669023  0.16190016  0.33620536    -0.01600
C643        C  0.89541962  0.99372111  0.48255259    -0.02700
C644        C  0.86775914  0.48106122  0.50180658     0.07000
C645        C  0.83626600  0.49092794  0.48957600    -0.02800
C646        C  0.83276848  0.01724888  0.46244445    -0.02800
C647        C  0.86062172  0.03290990  0.44706530     0.07100
C648        C  0.89184994  0.01982587  0.45588885    -0.03000
Br649      Br  0.92981667  0.03920547  0.43263149    -0.01600
Br650      Br  0.93819107  0.97555511  0.49381479    -0.01600
Br651      Br  0.78984843  0.03381237  0.44913378    -0.01600
Br652      Br  0.79776810  0.47106143  0.51169111    -0.01600
C653        C  0.84608148  0.24694029  0.51245532    -0.02700
C654        C  0.87734953  0.23646735  0.50081044     0.07000
C655        C  0.90494282  0.24636571  0.52172570    -0.02800
C656        C  0.90159970  0.27004815  0.55055688    -0.02800
C657        C  0.87064260  0.28383181  0.55922561     0.07100
C658        C  0.84266124  0.26928536  0.54246880    -0.03000
Br659      Br  0.79962351  0.27774901  0.56172300    -0.01600
Br660      Br  0.80766634  0.22952193  0.48816202    -0.01600
Br661      Br  0.93905385  0.28181979  0.58028933    -0.01600
Br662      Br  0.94755630  0.22810400  0.51049567    -0.01600
C663        C  0.74537753  0.14015531  0.47701707    -0.02700
C664        C  0.77585045  0.13086428  0.49227057     0.07000
C665        C  0.77770423  0.10478007  0.51861117    -0.02800
C666        C  0.74940621  0.08710816  0.52823085    -0.02800
C667        C  0.71840928  0.09912481  0.51666014     0.07100
C668        C  0.71654891  0.12426857  0.48893387    -0.03000
Br669      Br  0.67574248  0.13472365  0.46435560    -0.01600
Br670      Br  0.74359657  0.17387985  0.43870427    -0.01600
Br671      Br  0.75385693  0.04342135  0.55222225    -0.01600
Br672      Br  0.81938600  0.09111088  0.53929136    -0.01600
C673        C  0.49244770  0.35769196  0.06051616    -0.02700
C674        C  0.47413175  0.35591215  0.09291778     0.07000
C675        C  0.48694243  0.37059268  0.12496636    -0.02800
C676        C  0.51685205  0.38897449  0.12426703    -0.02800
C677        C  0.53546556  0.39162253  0.09141392     0.07100
C678        C  0.52268964  0.37522750  0.05939801    -0.03000
Br679      Br  0.54520891  0.37553088  0.01274345    -0.01600
Br680      Br  0.47583721  0.33485438  0.01734934    -0.01600
Br681      Br  0.52990154  0.41211688  0.16865101    -0.01600
Br682      Br  0.46281856  0.36593143  0.16991495    -0.01600
C683        C  0.61096101  0.35609852  0.23041569    -0.02700
C684        C  0.63250345  0.38226080  0.21953655     0.07000
C685        C  0.65023205  0.40043406  0.24628481    -0.02800
C686        C  0.64679606  0.39226096  0.28359895    -0.02800
C687        C  0.62859747  0.36297903  0.29458161     0.07100
C688        C  0.60912546  0.34605233  0.26758999    -0.03000
Br689      Br  0.57903672  0.30950825  0.27982334    -0.01600
Br690      Br  0.58344042  0.33444510  0.19404541    -0.01600
Br691      Br  0.66577799  0.42358930  0.31875272    -0.01600
Br692      Br  0.68195147  0.43470159  0.23201230    -0.01600
C693        C  0.99646959  0.35032430  0.94653311    -0.02700
C694        C  0.97472794  0.35295036  0.91644511     0.07000
C695        C  0.98118372  0.37796026  0.88906018    -0.02800
C696        C  0.00994823  0.39815153  0.89048171    -0.02800
C697        C  0.03269949  0.39401244  0.91952761     0.07100
C698        C  0.02452957  0.37120233  0.94874371    -0.03000
Br699      Br  0.05050729  0.36754394  0.99337162    -0.01600
Br700      Br  0.98882305  0.31722261  0.98522715    -0.01600
Br701      Br  0.01572290  0.43445023  0.85480745    -0.01600
Br702      Br  0.94920798  0.38787043  0.85141845    -0.01600
C703        C  0.90225084  0.34968327  0.76598573    -0.02700
C704        C  0.87760690  0.36170950  0.78973907     0.07000
C705        C  0.85406528  0.38518540  0.77613194    -0.02800
C706        C  0.85583977  0.39729643  0.73995468    -0.02800
C707        C  0.87897742  0.38366282  0.71567560     0.07100
C708        C  0.90246632  0.36016697  0.72885841    -0.03000
Br709      Br  0.93542086  0.34321626  0.69600595    -0.01600
Br710      Br  0.93594800  0.31919846  0.78383928    -0.01600
Br711      Br  0.82527404  0.43184736  0.72379943    -0.01600
Br712      Br  0.81641627  0.39800880  0.80501160    -0.01600
C713        C  0.78209620  0.34884109  0.01962545    -0.02700
C714        C  0.78156357  0.35648068  0.98199422     0.07000
C715        C  0.75442120  0.37307110  0.96559470    -0.02800
C716        C  0.72890246  0.38412372  0.98759958    -0.02800
C717        C  0.72911042  0.37614728  0.02514870     0.07100
C718        C  0.75579983  0.35851957  0.04127745    -0.03000
Br719      Br  0.75674641  0.34588499  0.09257843    -0.01600
Br720      Br  0.81793943  0.32334666  0.04149055    -0.01600
Br721      Br  0.69562591  0.41332426  0.96662397    -0.01600
Br722      Br  0.75192796  0.38265689  0.91339239    -0.01600
C723        C  0.50563264  0.16136655  0.90573627    -0.02700
C724        C  0.53465615  0.14240774  0.90657895     0.07000
C725        C  0.53232376  0.10620000  0.90546031    -0.02800
C726        C  0.50207667  0.08957002  0.91143758    -0.02800
C727        C  0.47288267  0.10848951  0.91190322     0.07100
C728        C  0.47501256  0.14449958  0.90550430    -0.03000
Br729      Br  0.43804985  0.17147566  0.89084991    -0.03200
Br730      Br  0.50823987  0.21066645  0.90277805    -0.01600
Br731      Br  0.50057442  0.04060563  0.91835080    -0.01600
Br732      Br  0.56807193  0.07897103  0.88855953    -0.01600
C733        C  0.66494764  0.12318591  0.73299781    -0.02700
C734        C  0.63621595  0.10926471  0.71767877     0.07000
C735        C  0.60745460  0.10735486  0.73875412    -0.02800
C736        C  0.60757047  0.11949633  0.77503646    -0.02800
C737        C  0.63691658  0.13127681  0.79101801     0.07100
C738        C  0.66555856  0.13314212  0.76979157    -0.03000
Br739      Br  0.70620232  0.14869422  0.79083392    -0.01600
Br740      Br  0.70407586  0.12797886  0.70388616    -0.01600
Br741      Br  0.56738355  0.12155334  0.80216385    -0.01600
Br742      Br  0.56779896  0.08905538  0.71779372    -0.01600
C743        C  0.78828594  0.22702835  0.87424795    -0.02700
C744        C  0.78786006  0.26269987  0.86572994     0.07000
C745        C  0.75722927  0.27668429  0.85412687    -0.02800
C746        C  0.72765373  0.25746718  0.85697880    -0.02800
C747        C  0.72778546  0.22308575  0.86952064     0.07100
C748        C  0.75883605  0.20761868  0.87574984    -0.03000
Br749      Br  0.76227326  0.15927155  0.88654731    -0.01600
Br750      Br  0.82922276  0.20289203  0.88183178    -0.01600
Br751      Br  0.68696693  0.27775766  0.84065601    -0.01600
Br752      Br  0.75483283  0.32127823  0.83104147    -0.01600
C753        C  0.62607009  0.03099759  0.02973360    -0.02700
C754        C  0.62824641  0.49767460  0.01611941     0.07000
C755        C  0.62799871  0.49234584  0.97763836    -0.02800
C756        C  0.63114960  0.02025642  0.95365692    -0.02800
C757        C  0.62976545  0.05372947  0.96714893     0.07100
C758        C  0.62479709  0.05878573  0.00518351    -0.03000
Br759      Br  0.61507126  0.10337602  0.02505307    -0.01600
Br760      Br  0.62730196  0.04036278  0.08163531    -0.01600
Br761      Br  0.63612094  0.01289334  0.90183448    -0.01600
Br762      Br  0.61740868  0.44810573  0.95766690    -0.01600
C763        C  0.59955431  0.26597681  0.00442922    -0.02700
C764        C  0.62776365  0.25384698  0.98687983     0.07000
C765        C  0.65873941  0.26276143  0.00109198    -0.02800
C766        C  0.66156790  0.28309986  0.03269551    -0.02800
C767        C  0.63343380  0.29739626  0.04910086     0.07100
C768        C  0.60235283  0.28674604  0.03586970    -0.03000
Br769      Br  0.56366747  0.29656367  0.06382481    -0.01600
Br770      Br  0.55703484  0.25359533  0.98563953    -0.01600
Br771      Br  0.70406351  0.28752512  0.05472716    -0.01600
Br772      Br  0.69774152  0.24736001  0.97627234    -0.01600
C773        C  0.98654510  0.11471932  0.05572865    -0.02700
C774        C  0.97322726  0.10141145  0.08879556     0.07000
C775        C  0.98866311  0.11119967  0.12233669    -0.02800
C776        C  0.01562130  0.13418455  0.12253853    -0.02800
C777        C  0.02907604  0.14691655  0.08940340     0.07100
C778        C  0.01269107  0.13847303  0.05620482    -0.03000
Br779      Br  0.02336629  0.16151502  0.01063968    -0.01600
Br780      Br  0.97152845  0.09935641  0.00805946    -0.01600
Br781      Br  0.03215691  0.14947659  0.16945281    -0.01600
Br782      Br  0.97482303  0.09251798  0.16906883    -0.01600
C783        C  0.88071334  0.08324422  0.24870501    -0.02700
C784        C  0.88471860  0.10788594  0.22023513     0.07000
C785        C  0.89208293  0.14215542  0.23025099    -0.02800
C786        C  0.89056487  0.15239279  0.26729768    -0.02800
C787        C  0.88471400  0.12805388  0.29515580     0.07100
C788        C  0.88217932  0.09322171  0.28571007    -0.03000
Br789      Br  0.88068541  0.05876957  0.32393689    -0.01600
Br790      Br  0.87014788  0.03590615  0.23873475    -0.01600
Br791      Br  0.89342149  0.20031023  0.27934517    -0.01600
Br792      Br  0.90526778  0.17547434  0.19386973    -0.01600
C793        C  0.75435290  0.02975456  0.15040989    -0.02700
C794        C  0.78588459  0.01487619  0.14576336     0.07000
C795        C  0.78705251  0.47881367  0.14582033    -0.02800
C796        C  0.75820653  0.45842984  0.14715129    -0.02800
C797        C  0.72655222  0.47345725  0.14495024     0.07100
C798        C  0.72491754  0.50930840  0.15001837    -0.03000
Br799      Br  0.68359168  0.03111549  0.15691442    -0.01600
Br800      Br  0.74981294  0.07760971  0.16160207    -0.01600
Br801      Br  0.76328729  0.41009235  0.15607612    -0.01600
Br802      Br  0.82901506  0.45583191  0.14625127    -0.01600
C803        C  0.90388490  0.45600577  0.97192011    -0.02700
C804        C  0.87335919  0.44293210  0.95920266     0.07000
C805        C  0.84439619  0.45704449  0.97426318    -0.02800
C806        C  0.84604432  0.48005254  0.00395604    -0.02800
C807        C  0.87643605  0.49209923  0.01703125     0.07100
C808        C  0.90528760  0.48041532  0.00038195    -0.03000
Br809      Br  0.94722226  0.00147026  0.01290335    -0.01600
Br810      Br  0.94431434  0.44251618  0.94903836    -0.01600
Br811      Br  0.80751437  0.99041279  0.03092369    -0.01600
Br812      Br  0.80188726  0.44685963  0.95422979    -0.01600
C813        C  0.90508376  0.20457873  0.03784555    -0.02700
C814        C  0.87388810  0.19321285  0.04973941     0.07000
C815        C  0.84593602  0.20779876  0.03255653    -0.02800
C816        C  0.84919138  0.23061436  0.00260621    -0.02800
C817        C  0.88036221  0.24026301  0.98978024     0.07100
C818        C  0.90827554  0.22656074  0.00715116    -0.03000
Br819      Br  0.95100123  0.23706540  0.98841524    -0.01600
Br820      Br  0.94365768  0.19274026  0.06582922    -0.01600
Br821      Br  0.81055744  0.24726790  0.97715104    -0.01600
Br822      Br  0.80273527  0.19843053  0.04981915    -0.01600
C823        C  0.72421119  0.13868578  0.02690757    -0.02700
C824        C  0.72125974  0.12648875  0.99108412     0.07000
C825        C  0.74389298  0.10298557  0.97686073    -0.02800
C826        C  0.77238801  0.09583850  0.99638601    -0.02800
C827        C  0.77630045  0.10932189  0.03163409     0.07100
C828        C  0.75122313  0.12891118  0.04791888    -0.03000
Br829      Br  0.75389768  0.14450614  0.09803105    -0.01600
Br830      Br  0.69239420  0.17010766  0.04659047    -0.01600
Br831      Br  0.80527135  0.06692238  0.97486653    -0.01600
Br832      Br  0.73491547  0.07831614  0.93216345    -0.01600
O833        O  0.92794548  0.57056353  0.11845802    -0.86200
O834        O  0.87989388  0.56829256  0.17050647    -0.83300
C835        C  0.87702133  0.59906563  0.18116723     0.97300
O836        O  0.86663525  0.62142180  0.15890418    -0.83300
O837        O  0.84720490  0.65263040  0.09124322    -0.85900
C838        C  0.87213929  0.66096753  0.07219616     1.01800
O839        O  0.89345024  0.63866605  0.06656815    -0.78700
O840        O  0.92474216  0.57823181  0.05993608    -0.78900
C841        C  0.94068278  0.58198554  0.08949632     1.01700
O842        O  0.89240759  0.51949687  0.07392963    -0.86200
O843        O  0.84037221  0.52464509  0.12262570    -0.83300
C844        C  0.81595491  0.53699520  0.13919563     0.97300
O845        O  0.81753529  0.56813046  0.14909961    -0.83300
O846        O  0.80462886  0.59414134  0.08294008    -0.85900
C847        C  0.80694892  0.60420468  0.05061729     1.01700
O848        O  0.83447421  0.61066984  0.03652623    -0.78700
O849        O  0.86397148  0.54862561  0.03363770    -0.78900
C850        C  0.87739565  0.52117248  0.04331364     1.01700
Cr851      Cr  0.88416629  0.54777844  0.11996428     1.93700
Cr852      Cr  0.83650112  0.60772526  0.11925100     1.93200
Cr853      Cr  0.87844994  0.59321113  0.05223541     1.39100
O854        O  0.86652032  0.58306041  0.09726508    -1.24000
O855        O  0.63607135  0.67412362  0.83775574    -0.86200
O856        O  0.58243777  0.67207962  0.88278266    -0.83300
C857        C  0.56676310  0.66069070  0.91009679     0.97300
O858        O  0.57846978  0.66485653  0.94196127    -0.83300
O859        O  0.61083575  0.60577441  0.94299796    -0.85900
C860        C  0.63279967  0.58380353  0.94130465     1.01800
O861        O  0.65862777  0.59056158  0.92340096    -0.78700
O862        O  0.64495534  0.62049032  0.85318516    -0.78900
C863        C  0.63819406  0.64281980  0.82919888     1.01700
O864        O  0.67079514  0.71820666  0.88847506    -0.86200
O865        O  0.61353593  0.72492565  0.93051864    -0.83300
C866        C  0.62562961  0.72352970  0.96269460     0.97300
O867        O  0.63653409  0.69593279  0.97501630    -0.83300
O868        O  0.66589483  0.63488292  0.97823542    -0.85900
C869        C  0.69482606  0.63779617  0.96716416     1.01700
O870        O  0.70103349  0.64715762  0.93521081    -0.78700
O871        O  0.69453337  0.67244473  0.86732831    -0.78900
C872        C  0.69615294  0.70398335  0.87544498     1.01700
Cr873      Cr  0.62634792  0.69529890  0.88676397     1.93700
Cr874      Cr  0.62398809  0.65143185  0.95645850     1.93200
Cr875      Cr  0.67213101  0.63421310  0.89554652     1.39100
O876        O  0.64087805  0.66031279  0.91299943    -1.24000
O877        O  0.87959751  0.81875343  0.83730862    -0.86200
O878        O  0.93031913  0.82270178  0.88799784    -0.83300
C879        C  0.94337522  0.83415903  0.91694081     0.97300
O880        O  0.92871103  0.83000817  0.94701872    -0.83300
O881        O  0.89555930  0.88962459  0.94131213    -0.85900
C882        C  0.87301269  0.91084185  0.93628356     1.01800
O883        O  0.84790415  0.90123514  0.91817604    -0.78700
O884        O  0.86777917  0.87144182  0.85177121    -0.78900
C885        C  0.87595656  0.84996266  0.82801825     1.01700
O886        O  0.84412599  0.77360027  0.88701896    -0.86200
O887        O  0.89783717  0.76979797  0.93410835    -0.83300
C888        C  0.88328210  0.77093135  0.96485240     0.97300
O889        O  0.87038923  0.79827494  0.97511224    -0.83300
O890        O  0.83870112  0.85888969  0.97288502    -0.85900
C891        C  0.81091126  0.85109167  0.96004598     1.01700
O892        O  0.80782722  0.84095857  0.92791904    -0.78700
O893        O  0.81949113  0.81670841  0.86126968    -0.78900
C894        C  0.81886366  0.78540543  0.87120488     1.01700
Cr895      Cr  0.88718767  0.79820660  0.88810207     1.93700
Cr896      Cr  0.88263424  0.84327931  0.95608467     1.93200
Cr897      Cr  0.83815598  0.85636560  0.89078678     1.39100
O898        O  0.86943801  0.83262400  0.91167508    -1.24000
O899        O  0.58325836  0.91762986  0.12040744    -0.86200
O900        O  0.63438389  0.92151788  0.16988357    -0.83300
C901        C  0.63724636  0.89062336  0.18019581     0.97300
O902        O  0.64604871  0.86800471  0.15786807    -0.83300
O903        O  0.66144070  0.83684381  0.09018229    -0.85900
C904        C  0.63546949  0.82875452  0.07270867     1.01800
O905        O  0.61387525  0.85114589  0.06834069    -0.78700
O906        O  0.58322785  0.91249687  0.06166294    -0.78900
C907        C  0.56856920  0.90811567  0.09162157     1.01700
O908        O  0.61570962  0.96851137  0.07356944    -0.86200
O909        O  0.67091411  0.96519358  0.12051285    -0.83300
C910        C  0.69592948  0.95220851  0.13625087     0.97300
O911        O  0.69497826  0.92061115  0.14489460    -0.83300
O912        O  0.70443647  0.89425072  0.07789366    -0.85900
C913        C  0.69992096  0.88334643  0.04618747     1.01700
O914        O  0.67134730  0.87765717  0.03429827    -0.78700
O915        O  0.64296168  0.94066513  0.03233186    -0.78900
C916        C  0.62890580  0.96752372  0.04217010     1.01700
Cr917      Cr  0.62695601  0.94126456  0.11953383     1.93700
Cr918      Cr  0.67431975  0.88133818  0.11661080     1.93200
Cr919      Cr  0.62879685  0.89630840  0.05210979     1.39100
O920        O  0.64348546  0.90632145  0.09615254    -1.24000
O921        O  0.92584319  0.67006269  0.41710840    -0.86200
O922        O  0.89249145  0.65881850  0.35183505    -0.83300
C923        C  0.87484052  0.63831576  0.33367692     0.97300
O924        O  0.84881487  0.62632756  0.34676862    -0.83300
O925        O  0.85321849  0.57981593  0.40463228    -0.85900
C926        C  0.85747738  0.56888241  0.43697299     1.01800
O927        O  0.85765144  0.58940299  0.46300708    -0.78700
O928        O  0.91524243  0.62176978  0.44620709    -0.78900
C929        C  0.93545160  0.64140804  0.43063902     1.01700
O930        O  0.86965350  0.71513135  0.43995222    -0.86200
O931        O  0.83961030  0.70408536  0.37345136    -0.83300
C932        C  0.80974356  0.69533542  0.37464081     0.97300
O933        O  0.80227007  0.66573404  0.38613509    -0.83300
O934        O  0.80412875  0.61939256  0.44121973    -0.85900
C935        C  0.80415342  0.63571264  0.47090795     1.01700
O936        O  0.82933175  0.65119025  0.48255854    -0.78700
O937        O  0.89183553  0.68121085  0.47972110    -0.78900
C938        C  0.87977159  0.70976215  0.47218910     1.01700
Cr939      Cr  0.88058065  0.68435039  0.39737799     1.93700
Cr940      Cr  0.82989302  0.62478842  0.39626741     1.93200
Cr941      Cr  0.87256931  0.63714587  0.46388499     1.39100
O942        O  0.86101034  0.64877756  0.41842771    -1.24000
O943        O  0.63379956  0.56585643  0.67386026    -0.86200
O944        O  0.57932604  0.56318773  0.63171365    -0.83300
C945        C  0.56232693  0.57583099  0.60599424     0.97300
O946        O  0.57205533  0.57290730  0.57318792    -0.83300
O947        O  0.60717801  0.62955412  0.56936954    -0.85900
C948        C  0.62953331  0.65085595  0.56697671     1.01800
O949        O  0.65665293  0.64307025  0.58198519    -0.78700
O950        O  0.64332614  0.61810909  0.65370395    -0.78900
C951        C  0.63625669  0.59784332  0.67948047     1.01700
O952        O  0.66769452  0.51840348  0.62509969    -0.86200
O953        O  0.61033246  0.50896422  0.58492808    -0.83300
C954        C  0.61954977  0.51015385  0.55163861     0.97300
O955        O  0.62656902  0.53809653  0.53695941    -0.83300
O956        O  0.66033672  0.59619397  0.53077056    -0.85900
C957        C  0.68977991  0.59105676  0.54092251     1.01700
O958        O  0.69621854  0.58397236  0.57367161    -0.78700
O959        O  0.69191693  0.56448103  0.64437897    -0.78900
C960        C  0.69326662  0.53262064  0.63776787     1.01700
Cr961      Cr  0.62334359  0.54097275  0.62678175     1.93700
Cr962      Cr  0.61771076  0.58328012  0.55559185     1.93200
Cr963      Cr  0.66934217  0.60085798  0.61282215     1.39100
O964        O  0.63679027  0.57466390  0.59818147    -1.24000
O965        O  0.57517076  0.80228758  0.39712064    -0.86200
O966        O  0.61487916  0.82428088  0.34368666    -0.83300
C967        C  0.63302567  0.84782887  0.33208786     0.97300
O968        O  0.65621595  0.85872474  0.35177650    -0.83300
O969        O  0.64266368  0.89309695  0.41846279    -0.85900
C970        C  0.63420840  0.89672889  0.45170256     1.01800
O971        O  0.63345491  0.87116531  0.47220814    -0.78700
O972        O  0.58070569  0.84361140  0.43736076    -0.78900
C973        C  0.56451079  0.82958368  0.41215931     1.01700
O974        O  0.63017446  0.75350283  0.42076468    -0.86200
O975        O  0.66706287  0.77734963  0.36458741    -0.83300
C976        C  0.69598368  0.78655362  0.37246341     0.97300
O977        O  0.70046894  0.81419279  0.38978762    -0.83300
O978        O  0.68951869  0.84816772  0.45269719    -0.85900
C979        C  0.68722183  0.82618901  0.47815219     1.01700
O980        O  0.66172366  0.80795375  0.48250634    -0.78700
O981        O  0.60060546  0.77854070  0.46080035    -0.78900
C982        C  0.61617989  0.75274174  0.45125043     1.01700
Cr983      Cr  0.62276675  0.79144638  0.38415015     1.93700
Cr984      Cr  0.66949051  0.85148685  0.40371042     1.93200
Cr985      Cr  0.62042908  0.82465314  0.45955567     1.39100
O986        O  0.63791643  0.82253715  0.41516084    -1.24000
O987        O  0.87821379  0.91967101  0.66168310    -0.86200
O988        O  0.92471441  0.91151571  0.60736255    -0.83300
C989        C  0.93710036  0.89946462  0.57848435     0.97300
O990        O  0.91981793  0.89988308  0.54974643    -0.83300
O991        O  0.88932364  0.83956849  0.56724106    -0.85900
C992        C  0.86836835  0.81791401  0.57693520     1.01800
O993        O  0.84370981  0.82801721  0.59494740    -0.78700
O994        O  0.86579699  0.86544657  0.65569075    -0.78900
C995        C  0.87585811  0.88972619  0.67517852     1.01700
O996        O  0.83728392  0.95888572  0.61154755    -0.86200
O997        O  0.88689657  0.95841899  0.55881478    -0.83300
C998        C  0.87096407  0.95356691  0.52919414     0.97300
O999        O  0.85797491  0.92513099  0.52310633    -0.83300
O1000       O  0.82924902  0.86434738  0.53572408    -0.85900
C1001       C  0.80143847  0.87071548  0.54887695     1.01700
O1002       O  0.79927705  0.88303406  0.58033563    -0.78700
O1003       O  0.81513543  0.91684114  0.64221132    -0.78900
C1004       C  0.81380796  0.94772194  0.63093494     1.01700
Cr1005     Cr  0.88084667  0.93488228  0.60855583     1.93700
Cr1006     Cr  0.87340712  0.88328673  0.54704790     1.93200
Cr1007     Cr  0.83342332  0.87489420  0.61677847     1.39100
O1008       O  0.86226209  0.89792605  0.59067522    -1.24000
O1009       O  0.07629998  0.67539077  0.11653068    -0.86200
O1010       O  0.12685400  0.67788108  0.16740399    -0.83300
C1011       C  0.12990955  0.64709453  0.17855528     0.97300
O1012       O  0.13878846  0.62412857  0.15678605    -0.83300
O1013       O  0.15447032  0.59068014  0.09063417    -0.85900
C1014       C  0.12828185  0.58208678  0.07383378     1.01800
O1015       O  0.10705061  0.60472248  0.06920608    -0.78700
O1016       O  0.07706927  0.66597259  0.05828786    -0.78900
C1017       C  0.06178429  0.66458993  0.08809636     1.01700
O1018       O  0.11204787  0.72393612  0.06861343    -0.86200
O1019       O  0.16517097  0.72020790  0.11713784    -0.83300
C1020       C  0.19013669  0.70734634  0.13289237     0.97300
O1021       O  0.18899200  0.67597325  0.14274839    -0.83300
O1022       O  0.19735002  0.64748007  0.07697624    -0.85900
C1023       C  0.19326328  0.63549061  0.04574794     1.01700
O1024       O  0.16498129  0.62915564  0.03344441    -0.78700
O1025       O  0.13691531  0.69186450  0.02837895    -0.78900
C1026       C  0.12539313  0.72026064  0.03744015     1.01700
Cr1027     Cr  0.12090825  0.69715737  0.11595487     1.93700
Cr1028     Cr  0.16742165  0.63607553  0.11567036     1.93200
Cr1029     Cr  0.12241417  0.64886638  0.05043261     1.39100
O1030       O  0.13698580  0.66089004  0.09405963    -1.24000
O1031       O  0.37113872  0.57173961  0.84620429    -0.86200
O1032       O  0.42458914  0.57821866  0.89149925    -0.83300
C1033       C  0.44011654  0.59195390  0.91764485     0.97300
O1034       O  0.42858131  0.58948265  0.94976232    -0.83300
O1035       O  0.39464640  0.64590126  0.94280144    -0.85900
C1036       C  0.37250071  0.66738494  0.94214275     1.01800
O1037       O  0.34634801  0.66012312  0.92476280    -0.78700
O1038       O  0.36152012  0.62611865  0.85659932    -0.78900
C1039       C  0.36822754  0.60228871  0.83472279     1.01700
O1040       O  0.33757506  0.53030889  0.89999765    -0.86200
O1041       O  0.39393309  0.52787409  0.94383132    -0.83300
C1042       C  0.38105030  0.53102998  0.97532220     0.97300
O1043       O  0.37075041  0.55937972  0.98548230    -0.83300
O1044       O  0.33947290  0.61921413  0.98202068    -0.85900
C1045       C  0.31081361  0.61394419  0.97030546     1.01700
O1046       O  0.30559228  0.60280335  0.93896629    -0.78700
O1047       O  0.31273352  0.57387617  0.87426842    -0.78900
C1048       C  0.31210324  0.54271713  0.88481189     1.01700
Cr1049     Cr  0.38125114  0.55408477  0.89705568     1.93700
Cr1050     Cr  0.38238042  0.60232618  0.96227521     1.93200
Cr1051     Cr  0.33424087  0.61445933  0.89944395     1.39100
O1052       O  0.36570369  0.59001888  0.91978839    -1.24000
O1053       O  0.12970531  0.92702654  0.83843139    -0.86200
O1054       O  0.07920266  0.92274399  0.88952683    -0.83300
C1055       C  0.06545009  0.91290421  0.91875664     0.97300
O1056       O  0.08095967  0.91648681  0.94823349    -0.83300
O1057       O  0.11112341  0.85319700  0.93995580    -0.85900
C1058       C  0.13277852  0.83128840  0.93312967     1.01800
O1059       O  0.15810666  0.84056636  0.91576588    -0.78700
O1060       O  0.14215332  0.87351360  0.84989985    -0.78900
C1061       C  0.13304116  0.89628669  0.82757111     1.01700
O1062       O  0.16711429  0.96898039  0.89022095    -0.86200
O1063       O  0.11438562  0.97293364  0.93736745    -0.83300
C1064       C  0.12757643  0.96979852  0.96907921     0.97300
O1065       O  0.14013062  0.94173312  0.97806896    -0.83300
O1066       O  0.16811305  0.87959379  0.97485843    -0.85900
C1067       C  0.19656466  0.88592091  0.96367842     1.01700
O1068       O  0.20118756  0.89569060  0.93128029    -0.78700
O1069       O  0.19170938  0.92583618  0.86515187    -0.78900
C1070       C  0.19249918  0.95682998  0.87539641     1.01700
Cr1071     Cr  0.12337874  0.94576967  0.89025142     1.93700
Cr1072     Cr  0.12586368  0.89849282  0.95692783     1.93200
Cr1073     Cr  0.17076016  0.88554674  0.89169665     1.39100
O1074       O  0.14012882  0.90991807  0.91294733    -1.24000
O1075       O  0.42755814  0.81775945  0.10661826    -0.86200
O1076       O  0.38965488  0.82891431  0.16758515    -0.83300
C1077       C  0.37275967  0.85143965  0.18320238     0.97300
O1078       O  0.34941556  0.86639608  0.16704754    -0.83300
O1079       O  0.35777445  0.91007838  0.10681194    -0.85900
C1080       C  0.36358377  0.91892347  0.07407113     1.01800
O1081       O  0.36417425  0.89684903  0.04965553    -0.78700
O1082       O  0.42022351  0.86465474  0.07301520    -0.78900
C1083       C  0.43861308  0.84531557  0.09178205     1.01700
O1084       O  0.37168792  0.77359811  0.07856029    -0.86200
O1085       O  0.33727777  0.78592793  0.14017042    -0.83300
C1086       C  0.30794397  0.79624944  0.13650585     0.97300
O1087       O  0.30253700  0.82667805  0.12611433    -0.83300
O1088       O  0.30938462  0.86951330  0.06846592    -0.85900
C1089       C  0.31099748  0.85094285  0.04029823     1.01700
O1090       O  0.33633293  0.83429049  0.03238728    -0.78700
O1091       O  0.39821371  0.80486534  0.04050847    -0.78900
C1092       C  0.38417484  0.77738085  0.04744822     1.01700
Cr1093     Cr  0.38059033  0.80425223  0.12129809     1.93700
Cr1094     Cr  0.33257037  0.86615134  0.11604110     1.93200
Cr1095     Cr  0.37845062  0.84924698  0.05295633     1.39100
O1096       O  0.36403621  0.84011775  0.09782940    -1.24000
O1097       O  0.08022986  0.57485796  0.39227074    -0.86200
O1098       O  0.12904753  0.56945636  0.33899970    -0.83300
C1099       C  0.13296391  0.60084146  0.33019382     0.97300
O1100       O  0.14194990  0.62139722  0.35441268    -0.83300
O1101       O  0.16734493  0.64971115  0.41850786    -0.85900
C1102       C  0.14278569  0.65938626  0.43707455     1.01800
O1103       O  0.12117365  0.63804942  0.44470636    -0.78700
O1104       O  0.08485497  0.58235326  0.45155780    -0.78900
C1105       C  0.06795868  0.58457743  0.42222869     1.01700
O1106       O  0.11065210  0.52220037  0.43689397    -0.86200
O1107       O  0.16381890  0.52220700  0.38861405    -0.83300
C1108       C  0.18907750  0.53296356  0.37220903     0.97300
O1109       O  0.18864822  0.56373537  0.36036732    -0.83300
O1110       O  0.20654770  0.58832070  0.42433604    -0.85900
C1111       C  0.20605603  0.59647751  0.45716351     1.01700
O1112       O  0.17945492  0.60432527  0.47283215    -0.78700
O1113       O  0.14426593  0.54603102  0.47504428    -0.78900
C1114       C  0.12568632  0.52175124  0.46752635     1.01700
Cr1115     Cr  0.12216388  0.54895923  0.39032305     1.93700
Cr1116     Cr  0.17379637  0.60468885  0.39045596     1.93200
Cr1117     Cr  0.13310936  0.59186888  0.45820679     1.39100
O1118       O  0.14291157  0.58197190  0.41309290    -1.24000
O1119       O  0.36787969  0.66691347  0.67200699    -0.86200
O1120       O  0.42410546  0.66547654  0.63257426    -0.83300
C1121       C  0.44224108  0.65447888  0.60745777     0.97300
O1122       O  0.43279044  0.65816933  0.57453023    -0.83300
O1123       O  0.40339285  0.59766564  0.57707564    -0.85900
C1124       C  0.38244768  0.57476920  0.57520786     1.01800
O1125       O  0.35444609  0.58026319  0.58909800    -0.78700
O1126       O  0.36145045  0.61284428  0.65792405    -0.78900
C1127       C  0.36664558  0.63569331  0.68133026     1.01700
O1128       O  0.33593279  0.70838982  0.61678236    -0.86200
O1129       O  0.39412760  0.71487825  0.57890178    -0.83300
C1130       C  0.38322589  0.71213760  0.54632571     0.97300
O1131       O  0.37550206  0.68355005  0.53394254    -0.83300
O1132       O  0.34955508  0.62061618  0.53199649    -0.85900
C1133       C  0.31957223  0.62293618  0.53980395     1.01700
O1134       O  0.31043716  0.63375574  0.57023117    -0.78700
O1135       O  0.31060512  0.66278744  0.63745983    -0.78900
C1136       C  0.31001117  0.69460406  0.62894858     1.01700
Cr1137     Cr  0.38010972  0.68689685  0.62322454     1.93700
Cr1138     Cr  0.38906602  0.64096809  0.55696588     1.93200
Cr1139     Cr  0.33666527  0.62406089  0.61329972     1.39100
O1140       O  0.36816223  0.65097348  0.59753675    -1.24000
O1141       O  0.12917960  0.81747129  0.66675557    -0.86200
O1142       O  0.07871718  0.82065847  0.61374302    -0.83300
C1143       C  0.06505892  0.82963617  0.58395897     0.97300
O1144       O  0.08078153  0.82581490  0.55453277    -0.83300
O1145       O  0.11047442  0.88493613  0.56766842    -0.85900
C1146       C  0.13123378  0.90789087  0.56920506     1.01800
O1147       O  0.15838994  0.90116239  0.58514938    -0.78700
O1148       O  0.14165617  0.86984245  0.65158522    -0.78900
C1149       C  0.13362680  0.84865539  0.67582626     1.01700
O1150       O  0.16492343  0.77236644  0.61742231    -0.86200
O1151       O  0.11421089  0.76924861  0.56841361    -0.83300
C1152       C  0.12940804  0.77133742  0.53788083     0.97300
O1153       O  0.14139601  0.79932730  0.52737473    -0.83300
O1154       O  0.17096488  0.86239052  0.53050442    -0.85900
C1155       C  0.19942276  0.85699927  0.54376023     1.01700
O1156       O  0.20199067  0.84407895  0.57493199    -0.78700
O1157       O  0.19179969  0.81533944  0.64014631    -0.78900
C1158       C  0.19119433  0.78376951  0.63100534     1.01700
Cr1159     Cr  0.12246078  0.79696704  0.61526555     1.93700
Cr1160     Cr  0.12685846  0.84245430  0.54759923     1.93200
Cr1161     Cr  0.17114489  0.85612284  0.61223385     1.39100
O1162       O  0.14069530  0.83115083  0.59150784    -1.24000
O1163       O  0.42991077  0.92578619  0.40379912    -0.86200
O1164       O  0.38751021  0.91443981  0.34848416    -0.83300
C1165       C  0.37213403  0.88934675  0.33552742     0.97300
O1166       O  0.35107055  0.87366477  0.35447982    -0.83300
O1167       O  0.36219303  0.83467875  0.41839763    -0.85900
C1168       C  0.36983957  0.82830774  0.45143859     1.01800
O1169       O  0.37031411  0.85211291  0.47371167    -0.78700
O1170       O  0.42434337  0.88069283  0.44018640    -0.78900
C1171       C  0.44036523  0.89688655  0.41610937     1.01700
O1172       O  0.37740380  0.97279484  0.43668268    -0.86200
O1173       O  0.33750981  0.95827933  0.37968913    -0.83300
C1174       C  0.30880662  0.94628952  0.38328280     0.97300
O1175       O  0.30539025  0.91562632  0.39362103    -0.83300
O1176       O  0.31519966  0.87854314  0.45487048    -0.85900
C1177       C  0.31825459  0.89881546  0.48167513     1.01700
O1178       O  0.34448572  0.91543041  0.48754115    -0.78700
O1179       O  0.40809858  0.94244231  0.47122532    -0.78900
C1180       C  0.39297654  0.96952996  0.46622255     1.01700
Cr1181     Cr  0.38225995  0.94045555  0.39435467     1.93700
Cr1182     Cr  0.33617809  0.87766927  0.40610088     1.93200
Cr1183     Cr  0.38538738  0.89858229  0.46449044     1.39100
O1184       O  0.36771975  0.90548222  0.42065376    -1.24000
C1185       C  0.26025695  0.85353300  0.53795956    -0.02700
C1186       C  0.23037084  0.86924305  0.52680281     0.07000
C1187       C  0.23176630  0.90028413  0.50647838    -0.02800
C1188       C  0.26231861  0.91473426  0.49754672    -0.02800
C1189       C  0.29138228  0.89805852  0.50762006     0.07100
C1190       C  0.29026866  0.86906232  0.53014628    -0.03000
Br1191     Br  0.33072486  0.84931800  0.54799699    -0.01600
Br1192     Br  0.26163748  0.80880146  0.56078561    -0.01600
Br1193     Br  0.26529904  0.95778261  0.47174080    -0.01600
Br1194     Br  0.19291819  0.92304285  0.48906630    -0.01600
C1195       C  0.24779674  0.70324514  0.62358995    -0.02700
C1196       C  0.27904875  0.71610034  0.63339806     0.07000
C1197       C  0.28061205  0.75026942  0.64610622    -0.02800
C1198       C  0.25226004  0.77157166  0.64730615    -0.02800
C1199       C  0.22106101  0.75968527  0.63490905     0.07100
C1200       C  0.21942706  0.72450402  0.62392588    -0.03000
Br1201     Br  0.17866567  0.70329945  0.60859417    -0.01600
Br1202     Br  0.24343393  0.65620065  0.60806038    -0.01600
Br1203     Br  0.25760526  0.81730028  0.66619009    -0.01600
Br1204     Br  0.32190411  0.76795222  0.66385518    -0.01600
C1205       C  0.40802797  0.76130172  0.51274170    -0.02700
C1206       C  0.38041283  0.74160697  0.52113132     0.07000
C1207       C  0.35055458  0.74783292  0.50251606    -0.02800
C1208       C  0.34873174  0.77288457  0.47461646    -0.02800
C1209       C  0.37591275  0.79398543  0.46733151     0.07100
C1210       C  0.40546021  0.78827525  0.48727254    -0.03000
Br1211     Br  0.44203455  0.81906928  0.48370815    -0.01600
Br1212     Br  0.44941509  0.75159102  0.53663114    -0.01600
Br1213     Br  0.30781569  0.78099932  0.44939037    -0.01600
Br1214     Br  0.31108024  0.72520776  0.51866255    -0.01600
C1215       C  0.39919699  0.55490577  0.51265892    -0.02700
C1216       C  0.38816534  0.54681445  0.54867342     0.07000
C1217       C  0.38263908  0.51248365  0.55820176    -0.02800
C1218       C  0.38683469  0.98727115  0.53243988    -0.02800
C1219       C  0.39277165  0.99602390  0.49515417     0.07100
C1220       C  0.39978572  0.52965297  0.48548944    -0.03000
Br1221     Br  0.41170421  0.54174360  0.43583063    -0.01600
Br1222     Br  0.41485217  0.60001253  0.49915276    -0.01600
Br1223     Br  0.38609387  0.94032429  0.54906760    -0.01600
Br1224     Br  0.37099417  0.50087242  0.60791642    -0.01600
C1225       C  0.21762509  0.97501999  0.37465793    -0.02700
C1226       C  0.21939486  0.51014632  0.36896185     0.07000
C1227       C  0.25128215  0.52420801  0.36468192    -0.02800
C1228       C  0.27989753  0.50397545  0.37017415    -0.02800
C1229       C  0.27827208  0.96847104  0.37635476     0.07100
C1230       C  0.24604426  0.95404683  0.37708535    -0.03000
Br1231     Br  0.23894045  0.90511334  0.38188432    -0.01600
Br1232     Br  0.17517465  0.95289073  0.37538318    -0.01600
Br1233     Br  0.32138101  0.52797598  0.37254749    -0.01600
Br1234     Br  0.25706689  0.57136281  0.34985262    -0.01600
C1235       C  0.10860702  0.70360519  0.46768944    -0.02700
C1236       C  0.14000277  0.69324380  0.45563456     0.07000
C1237       C  0.16774196  0.70994685  0.47039093    -0.02800
C1238       C  0.16409360  0.73455407  0.49811224    -0.02800
C1239       C  0.13294605  0.74198203  0.51260593     0.07100
C1240       C  0.10534051  0.72555311  0.49781473    -0.03000
Br1241     Br  0.06313825  0.73115892  0.51975379    -0.01600
Br1242     Br  0.06953240  0.68898224  0.44196585    -0.01600
Br1243     Br  0.20247049  0.75627194  0.51840463    -0.01600
Br1244     Br  0.21110358  0.69955173  0.45400035    -0.01600
C1245       C  0.12970457  0.50006579  0.53288492    -0.02700
C1246       C  0.12125320  0.99424887  0.49536212     0.07000
C1247       C  0.11128289  0.96134247  0.48431228    -0.02800
C1248       C  0.11171810  0.93401454  0.50962905    -0.02800
C1249       C  0.12569908  0.93835371  0.54525736     0.07100
C1250       C  0.13368941  0.97144073  0.55689343    -0.03000
Br1251     Br  0.14943004  0.97855775  0.60616241    -0.01600
Br1252     Br  0.13025925  0.54605403  0.55214459    -0.01600
Br1253     Br  0.09393883  0.89062105  0.49324046    -0.01600
Br1254     Br  0.09781413  0.95227541  0.43433775    -0.01600
C1255       C  0.27190413  0.58614158  0.52789125    -0.02700
C1256       C  0.29469090  0.61041728  0.51494520     0.07000
C1257       C  0.29140570  0.62489153  0.47996982    -0.02800
C1258       C  0.26260984  0.61924328  0.46018244    -0.02800
C1259       C  0.23741303  0.59913064  0.47583414     0.07100
C1260       C  0.24320981  0.58030780  0.50802593    -0.03000
Br1261     Br  0.21353122  0.54461084  0.52304564    -0.01600
Br1262     Br  0.28033543  0.56011434  0.57213779    -0.01600
Br1263     Br  0.25817270  0.63992094  0.41220594    -0.01600
Br1264     Br  0.32550585  0.65348305  0.45988224    -0.01600
C1265       C  0.37405706  0.83479826  0.24929291    -0.02700
C1266       C  0.37904908  0.85981776  0.22199625     0.07000
C1267       C  0.38613755  0.89367744  0.23206084    -0.02800
C1268       C  0.38574170  0.90324229  0.26921678    -0.02800
C1269       C  0.37800451  0.87867575  0.29682617     0.07100
C1270       C  0.37380177  0.84400864  0.28650308    -0.03000
Br1271     Br  0.36808900  0.80825677  0.32274968    -0.01600
Br1272     Br  0.36499766  0.78808530  0.23554021    -0.01600
Br1273     Br  0.39406266  0.95073436  0.28061369    -0.01600
Br1274     Br  0.39618898  0.92702460  0.19438677    -0.01600
C1275       C  0.15367153  0.89911412  0.76295297    -0.02700
C1276       C  0.13013249  0.88700796  0.78794943     0.07000
C1277       C  0.10713461  0.86239588  0.77598543    -0.02800
C1278       C  0.10788826  0.84973162  0.73961996    -0.02800
C1279       C  0.13218286  0.86102977  0.71481594     0.07100
C1280       C  0.15520172  0.88588076  0.72710523    -0.03000
Br1281     Br  0.19121624  0.90051052  0.69638483    -0.01600
Br1282     Br  0.18531458  0.93291129  0.77832557    -0.01600
Br1283     Br  0.07482230  0.81783341  0.72374441    -0.01600
Br1284     Br  0.07382558  0.84694350  0.80943638    -0.01600
C1285       C  0.25521458  0.89403085  0.97729954    -0.02700
C1286       C  0.22522872  0.87851661  0.98661625     0.07000
C1287       C  0.22450457  0.85210405  0.01327023    -0.02800
C1288       C  0.25402929  0.83870317  0.02639582    -0.02800
C1289       C  0.28376786  0.85309172  0.01523816     0.07100
C1290       C  0.28449721  0.87995511  0.98975646    -0.03000
Br1291     Br  0.32567825  0.89864251  0.97333125    -0.01600
Br1292     Br  0.25621633  0.93807545  0.95340839    -0.01600
Br1293     Br  0.25424371  0.80042415  0.05966266    -0.01600
Br1294     Br  0.18428059  0.83623640  0.03535501    -0.01600
C1295       C  0.39624780  0.62550498  0.77905231    -0.02700
C1296       C  0.36903068  0.60929226  0.79507317     0.07000
C1297       C  0.34196066  0.60013526  0.77303027    -0.02800
C1298       C  0.34129942  0.60902132  0.73580781    -0.02800
C1299       C  0.36812637  0.62613295  0.72013245     0.07100
C1300       C  0.39576816  0.63410691  0.74161826    -0.03000
Br1301     Br  0.43341747  0.65565049  0.71965218    -0.01600
Br1302     Br  0.43501193  0.63389889  0.80756295    -0.01600
Br1303     Br  0.30256226  0.59957333  0.70679617    -0.01600
Br1304     Br  0.30541278  0.57530918  0.79301106    -0.01600
C1305       C  0.28398245  0.98439167  0.87040130    -0.02700
C1306       C  0.28145932  0.52100704  0.87877750     0.07000
C1307       C  0.24965064  0.53552389  0.88103807    -0.02800
C1308       C  0.22101081  0.51530209  0.87657851    -0.02800
C1309       C  0.22336584  0.97874700  0.87128289     0.07100
C1310       C  0.25508353  0.96412069  0.86678750    -0.03000
Br1311     Br  0.26030483  0.91595053  0.85634730    -0.01600
Br1312     Br  0.32609375  0.96292522  0.86372735    -0.01600
Br1313     Br  0.17921443  0.53859220  0.87387879    -0.01600
Br1314     Br  0.24396782  0.58315272  0.89280094    -0.01600
C1315       C  0.40401630  0.48980588  0.02182399    -0.02700
C1316       C  0.37774063  0.00081937  0.00182755     0.07000
C1317       C  0.34574985  0.99175317  0.01271935    -0.02800
C1318       C  0.34084408  0.96914096  0.04238193    -0.02800
C1319       C  0.36778341  0.95432978  0.06076359     0.07100
C1320       C  0.39966376  0.96503399  0.05131589    -0.03000
Br1321     Br  0.43652217  0.94654988  0.07788334    -0.01600
Br1322     Br  0.44741834  0.50586611  0.01060373    -0.01600
Br1323     Br  0.29705274  0.95627099  0.05641075    -0.01600
Br1324     Br  0.30847040  0.00902750  0.98555841    -0.01600
C1325       C  0.38727735  0.68973066  0.00459970    -0.02700
C1326       C  0.37557288  0.69625594  0.96827678     0.07000
C1327       C  0.36932822  0.73012919  0.95734855    -0.02800
C1328       C  0.37314371  0.75703455  0.98264789    -0.02800
C1329       C  0.38258451  0.75003389  0.01950123     0.07100
C1330       C  0.39077059  0.71648939  0.02974529    -0.03000
Br1331     Br  0.40999495  0.70763550  0.07754633    -0.01600
Br1332     Br  0.39917707  0.64442366  0.02184339    -0.01600
Br1333     Br  0.36601614  0.80318842  0.96556195    -0.01600
Br1334     Br  0.35808878  0.73977535  0.90691931    -0.01600
C1335       C  0.14982109  0.64165095  0.27967129    -0.02700
C1336       C  0.13021216  0.61357788  0.29151240     0.07000
C1337       C  0.10876603  0.59812952  0.26594990    -0.02800
C1338       C  0.10842964  0.60917001  0.22902286    -0.02800
C1339       C  0.12677866  0.63807013  0.21797383     0.07100
C1340       C  0.14623064  0.65520692  0.24404760    -0.03000
Br1341     Br  0.16995256  0.69632522  0.23079903    -0.01600
Br1342     Br  0.18528053  0.65946756  0.30957494    -0.01600
Br1343     Br  0.08282948  0.58431773  0.19345391    -0.01600
Br1344     Br  0.07907732  0.56233628  0.28096351    -0.01600
C1345       C  0.25274296  0.71553358  0.13296326    -0.02700
C1346       C  0.22097216  0.72891656  0.13937869     0.07000
C1347       C  0.21918285  0.76352801  0.15065907    -0.02800
C1348       C  0.24782611  0.78434438  0.15323810    -0.02800
C1349       C  0.27899167  0.77196826  0.14231464     0.07100
C1350       C  0.28105096  0.73678503  0.13321268    -0.03000
Br1351     Br  0.32223593  0.71701915  0.11839952    -0.01600
Br1352     Br  0.25856260  0.66785196  0.12275983    -0.01600
Br1353     Br  0.24423346  0.82958779  0.17370518    -0.01600
Br1354     Br  0.17752148  0.78243334  0.16453122    -0.01600
C1355       C  0.15146146  0.52561128  0.05038402    -0.02700
C1356       C  0.12505725  0.54888006  0.05263162     0.07000
C1357       C  0.09750541  0.54284127  0.02930976    -0.02800
C1358       C  0.09852445  0.01730327  0.00322619    -0.02800
C1359       C  0.12695868  0.99755725  0.99751742     0.07100
C1360       C  0.15307090  0.50155861  0.02165913    -0.03000
Br1361     Br  0.19281172  0.47518284  0.01648502    -0.01600
Br1362     Br  0.18386395  0.52311548  0.08883556    -0.01600
Br1363     Br  0.05985499  0.00979468  0.97355266    -0.01600
Br1364     Br  0.05686066  0.56694620  0.03578862    -0.01600
C1365       C  0.15782462  0.75784645  0.99567771    -0.02700
C1366       C  0.12712307  0.74837646  0.01002689     0.07000
C1367       C  0.09847220  0.76117744  0.99331620    -0.02800
C1368       C  0.10062238  0.78428203  0.96356310    -0.02800
C1369       C  0.13122021  0.79721341  0.95218104     0.07100
C1370       C  0.15998625  0.78164711  0.96651933    -0.03000
Br1371     Br  0.20274663  0.79175356  0.94679341    -0.01600
Br1372     Br  0.19729684  0.73989696  0.01805883    -0.01600
Br1373     Br  0.06221578  0.79454992  0.93484195    -0.01600
Br1374     Br  0.05622415  0.74675661  0.01074674    -0.01600
C1375       C  0.24798641  0.60989526  0.04288085    -0.02700
C1376       C  0.22224414  0.62769255  0.02512630     0.07000
C1377       C  0.22646713  0.64241765  0.99038334    -0.02800
C1378       C  0.25724998  0.64129197  0.97439782    -0.02800
C1379       C  0.28256780  0.62251678  0.99161515     0.07100
C1380       C  0.27833274  0.60742917  0.02607316    -0.03000
Br1381     Br  0.31362548  0.58285397  0.04991155    -0.01600
Br1382     Br  0.24162193  0.58704520  0.08932294    -0.01600
Br1383     Br  0.26520170  0.66738374  0.93007161    -0.01600
Br1384     Br  0.19052364  0.66390645  0.96444951    -0.01600
C1385       C  0.99461432  0.89157044  0.60540343    -0.02700
C1386       C  0.97085860  0.88335393  0.57833408     0.07000
C1387       C  0.97913524  0.85788193  0.55219599    -0.02800
C1388       C  0.00905193  0.83974431  0.55496683    -0.02800
C1389       C  0.03196574  0.84679360  0.58309639     0.07100
C1390       C  0.02467969  0.87351206  0.60774787    -0.03000
Br1391     Br  0.05705906  0.88788811  0.64320088    -0.01600
Br1392     Br  0.98794484  0.92989602  0.63763176    -0.01600
Br1393     Br  0.01775067  0.80421329  0.52008543    -0.01600
Br1394     Br  0.95033374  0.84656548  0.51155076    -0.01600
C1395       C  0.50338073  0.82744447  0.40018793    -0.02700
C1396       C  0.53274068  0.84608191  0.40181662     0.07000
C1397       C  0.53124752  0.88218983  0.39770818    -0.02800
C1398       C  0.50106810  0.89968855  0.40025406    -0.02800
C1399       C  0.47179145  0.88092850  0.40373793     0.07100
C1400       C  0.47320910  0.84496080  0.39897494    -0.03000
Br1401     Br  0.43403125  0.81969268  0.38799415    -0.01600
Br1402     Br  0.50399265  0.77817255  0.40202631    -0.01600
Br1403     Br  0.50043520  0.94898764  0.40006029    -0.01600
Br1404     Br  0.57045242  0.90764130  0.38679228    -0.01600
C1405       C  0.74518370  0.81827080  0.48972026    -0.02700
C1406       C  0.71437237  0.82668571  0.50400076     0.07000
C1407       C  0.71213768  0.85105626  0.53187372    -0.02800
C1408       C  0.74022782  0.86862601  0.54342489    -0.02800
C1409       C  0.77138165  0.85933436  0.52986738     0.07100
C1410       C  0.77338448  0.83537358  0.50115537    -0.03000
Br1411     Br  0.81325665  0.82773182  0.47357175    -0.01600
Br1412     Br  0.74875482  0.78573308  0.45115281    -0.01600
Br1413     Br  0.73434979  0.90989646  0.57132434    -0.01600
Br1414     Br  0.66967445  0.86374002  0.55047397    -0.01600
C1415       C  0.50108599  0.57945204  0.61770818    -0.02700
C1416       C  0.53166642  0.59565490  0.61415859     0.07000
C1417       C  0.53274799  0.63158139  0.61962980    -0.02800
C1418       C  0.50376324  0.65140372  0.61718935    -0.02800
C1419       C  0.47314490  0.63511282  0.61605165     0.07100
C1420       C  0.47245834  0.59930769  0.62234083    -0.03000
Br1421     Br  0.43546663  0.57879522  0.64627591    -0.01600
Br1422     Br  0.49856844  0.53031933  0.61832000    -0.01600
Br1423     Br  0.50563425  0.70063571  0.61800284    -0.01600
Br1424     Br  0.57237856  0.65326967  0.63598707    -0.01600
C1425       C  0.75641228  0.52727700  0.64104172    -0.02700
C1426       C  0.72480411  0.51216155  0.64405902     0.07000
C1427       C  0.72496114  0.97709359  0.65195929    -0.02800
C1428       C  0.75365573  0.95644370  0.65106905    -0.02800
C1429       C  0.78441082  0.97046853  0.64023055     0.07100
C1430       C  0.78632761  0.00677955  0.63800791    -0.03000
Br1431     Br  0.82714734  0.52906067  0.63505099    -0.01600
Br1432     Br  0.76152430  0.57654893  0.64013393    -0.01600
Br1433     Br  0.74971603  0.90921170  0.66676385    -0.01600
Br1434     Br  0.68436701  0.95724566  0.66880442    -0.01600
C1435       C  0.59772063  0.95828957  0.51995149    -0.02700
C1436       C  0.62376478  0.98129288  0.52482250     0.07000
C1437       C  0.65146689  0.97855958  0.50171393    -0.02800
C1438       C  0.65322228  0.95334130  0.47439603    -0.02800
C1439       C  0.62755046  0.92983987  0.46999625     0.07100
C1440       C  0.59962729  0.93270790  0.49291751    -0.03000
Br1441     Br  0.56371084  0.90108004  0.48846761    -0.01600
Br1442     Br  0.55913399  0.96203819  0.54990608    -0.01600
Br1443     Br  0.69234206  0.94899776  0.44530429    -0.01600
Br1444     Br  0.68973822  0.50207154  0.51864861    -0.01600
C1445       C  0.65292487  0.69791375  0.52661062    -0.02700
C1446       C  0.62526291  0.68029337  0.54047201     0.07000
C1447       C  0.59430440  0.68631536  0.52282103    -0.02800
C1448       C  0.59180133  0.70826021  0.49209238    -0.02800
C1449       C  0.61968776  0.72404118  0.47776144     0.07100
C1450       C  0.65015837  0.71768642  0.49432991    -0.03000
Br1451     Br  0.68861866  0.73420255  0.47106445    -0.01600
Br1452     Br  0.69511230  0.69637488  0.55097517    -0.01600
Br1453     Br  0.55035908  0.71501550  0.46719549    -0.01600
Br1454     Br  0.55395274  0.66587704  0.53927654    -0.01600
C1455       C  0.98991270  0.63512640  0.39755393    -0.02700
C1456       C  0.97055732  0.62996698  0.42913963     0.07000
C1457       C  0.98382602  0.61021566  0.45838597    -0.02800
C1458       C  0.01408078  0.59324364  0.45469583    -0.02800
C1459       C  0.03384259  0.59893608  0.42356946     0.07100
C1460       C  0.02165881  0.62069330  0.39530515    -0.03000
Br1461     Br  0.04864581  0.63258991  0.35382464    -0.01600
Br1462     Br  0.97300029  0.66098456  0.35636865    -0.01600
Br1463     Br  0.02667315  0.55980888  0.49146310    -0.01600
Br1464     Br  0.96187189  0.60784619  0.50516123    -0.01600
C1465       C  0.78571216  0.75605394  0.36570358    -0.02700
C1466       C  0.78216203  0.71991780  0.36410920     0.07000
C1467       C  0.75064679  0.70720921  0.35501189    -0.02800
C1468       C  0.72244828  0.72835060  0.35704784    -0.02800
C1469       C  0.72551337  0.76417004  0.36323505     0.07100
C1470       C  0.75783159  0.77781487  0.36325513    -0.03000
Br1471     Br  0.76476389  0.82670855  0.35978196    -0.01600
Br1472     Br  0.82829574  0.77674256  0.37196798    -0.01600
Br1473     Br  0.68016719  0.70649396  0.35305361    -0.01600
Br1474     Br  0.74584130  0.66086975  0.33736894    -0.01600
C1475       C  0.89553510  0.49450488  0.48404460    -0.02700
C1476       C  0.86767149  0.98056427  0.50062591     0.07000
C1477       C  0.83621072  0.99115079  0.48903262    -0.02800
C1478       C  0.83273873  0.51654847  0.46251359    -0.02800
C1479       C  0.86052572  0.53253561  0.44743875     0.07100
C1480       C  0.89185255  0.52010398  0.45687568    -0.03000
Br1481     Br  0.92974298  0.53965212  0.43363299    -0.01600
Br1482     Br  0.93851022  0.47753664  0.49648959    -0.01600
Br1483     Br  0.78974446  0.53208451  0.44810659    -0.01600
Br1484     Br  0.79770539  0.97150314  0.51132690    -0.01600
C1485       C  0.84539176  0.74569629  0.51404054    -0.02700
C1486       C  0.87665911  0.73545251  0.50204533     0.07000
C1487       C  0.90432177  0.74538967  0.52285298    -0.02800
C1488       C  0.90104408  0.76906308  0.55168414    -0.02800
C1489       C  0.87018202  0.78306863  0.56017230     0.07100
C1490       C  0.84211411  0.76832206  0.54383663    -0.03000
Br1491     Br  0.79918721  0.77705298  0.56333535    -0.01600
Br1492     Br  0.80677194  0.72767727  0.49066427    -0.01600
Br1493     Br  0.93832232  0.78045738  0.58185210    -0.01600
Br1494     Br  0.94694353  0.72724153  0.51150863    -0.01600
C1495       C  0.74475874  0.63992193  0.47775008    -0.02700
C1496       C  0.77527419  0.63103160  0.49317629     0.07000
C1497       C  0.77723616  0.60543601  0.51997809    -0.02800
C1498       C  0.74917325  0.58721234  0.52924648    -0.02800
C1499       C  0.71801686  0.59851042  0.51724719     0.07100
C1500       C  0.71601104  0.62381575  0.48965231    -0.03000
Br1501     Br  0.67513274  0.63440049  0.46527529    -0.01600
Br1502     Br  0.74282107  0.67349563  0.43930882    -0.01600
Br1503     Br  0.75456217  0.54364134  0.55306210    -0.01600
Br1504     Br  0.81890132  0.59311658  0.54170720    -0.01600
C1505       C  0.49108050  0.85915404  0.06074323    -0.02700
C1506       C  0.47377949  0.85527114  0.09365862     0.07000
C1507       C  0.48780673  0.86742967  0.12630484    -0.02800
C1508       C  0.51788286  0.88557537  0.12584892    -0.02800
C1509       C  0.53526686  0.89076383  0.09241121     0.07100
C1510       C  0.52134417  0.87661173  0.05975002    -0.03000
Br1511     Br  0.54226161  0.87983693  0.01225970    -0.01600
Br1512     Br  0.47303253  0.83926752  0.01656458    -0.01600
Br1513     Br  0.53315032  0.90425541  0.17177782    -0.01600
Br1514     Br  0.46513448  0.85967865  0.17178533    -0.01600
C1515       C  0.61332570  0.85341497  0.22942424    -0.02700
C1516       C  0.63275188  0.88161323  0.21923653     0.07000
C1517       C  0.64858206  0.90099212  0.24650500    -0.02800
C1518       C  0.64472166  0.89250259  0.28366525    -0.02800
C1519       C  0.62871033  0.86172285  0.29398489     0.07100
C1520       C  0.61178958  0.84287652  0.26641774    -0.03000
Br1521     Br  0.58663697  0.80212951  0.27741885    -0.01600
Br1522     Br  0.58859350  0.82919781  0.19240564    -0.01600
Br1523     Br  0.65996442  0.92504989  0.31970542    -0.01600
Br1524     Br  0.67889885  0.93700528  0.23331020    -0.01600
C1525       C  0.99647823  0.85172578  0.94675711    -0.02700
C1526       C  0.97495027  0.85372049  0.91641449     0.07000
C1527       C  0.98145537  0.87835585  0.88865924    -0.02800
C1528       C  0.01019694  0.89862037  0.88985629    -0.02800
C1529       C  0.03269711  0.89522483  0.91929346     0.07100
C1530       C  0.02436854  0.87287067  0.94888012    -0.03000
Br1531     Br  0.04994676  0.87006547  0.99387862    -0.01600
Br1532     Br  0.98883157  0.81907412  0.98593634    -0.01600
Br1533     Br  0.01637841  0.93373832  0.85292915    -0.01600
Br1534     Br  0.94950527  0.88769421  0.85077899    -0.01600
C1535       C  0.90156071  0.84741342  0.76477506    -0.02700
C1536       C  0.87820942  0.86129953  0.78903507     0.07000
C1537       C  0.85609664  0.88644787  0.77570310    -0.02800
C1538       C  0.85836720  0.89863044  0.73954668    -0.02800
C1539       C  0.88030231  0.88346147  0.71492222     0.07100
C1540       C  0.90213697  0.85809175  0.72770319    -0.03000
Br1541     Br  0.93335824  0.83869064  0.69426067    -0.01600
Br1542     Br  0.93278296  0.81370408  0.78160938    -0.01600
Br1543     Br  0.82983093  0.93523093  0.72373243    -0.01600
Br1544     Br  0.81923479  0.90137186  0.80468382    -0.01600
C1545       C  0.78207653  0.84912905  0.01908066    -0.02700
C1546       C  0.78168332  0.85674401  0.98143979     0.07000
C1547       C  0.75398438  0.87200002  0.96467362    -0.02800
C1548       C  0.72764939  0.88170572  0.98626218    -0.02800
C1549       C  0.72818074  0.87470778  0.02406649     0.07100
C1550       C  0.75533941  0.85807270  0.04047281    -0.03000
Br1551     Br  0.75631092  0.84566961  0.09184132    -0.01600
Br1552     Br  0.81837002  0.82464770  0.04134208    -0.01600
Br1553     Br  0.69234295  0.90724671  0.96395982    -0.01600
Br1554     Br  0.75182984  0.88181225  0.91248909    -0.01600
C1555       C  0.50549202  0.66234351  0.90445725    -0.02700
C1556       C  0.53437791  0.64314749  0.90564434     0.07000
C1557       C  0.53175684  0.60696722  0.90474933    -0.02800
C1558       C  0.50137532  0.59061616  0.91076836    -0.02800
C1559       C  0.47230536  0.60976034  0.91115836     0.07100
C1560       C  0.47470900  0.64574100  0.90455766    -0.03000
Br1561     Br  0.43778652  0.67311061  0.89062278    -0.03200
Br1562     Br  0.50854033  0.71157043  0.90057255    -0.01600
Br1563     Br  0.49955725  0.54171629  0.91803215    -0.01600
Br1564     Br  0.56730556  0.57943019  0.88785100    -0.01600
C1565       C  0.66410797  0.62526618  0.73204265    -0.02700
C1566       C  0.63534166  0.61110114  0.71707055     0.07000
C1567       C  0.60666492  0.60936081  0.73829769    -0.02800
C1568       C  0.60701853  0.62153085  0.77454809    -0.02800
C1569       C  0.63653990  0.63298172  0.79036662     0.07100
C1570       C  0.66501340  0.63501759  0.76888363    -0.03000
Br1571     Br  0.70582611  0.65041134  0.78965860    -0.01600
Br1572     Br  0.70283699  0.63075595  0.70238575    -0.01600
Br1573     Br  0.56695663  0.62412102  0.80186648    -0.01600
Br1574     Br  0.56679656  0.59134406  0.71756460    -0.01600
C1575       C  0.78850743  0.72757604  0.87444217    -0.02700
C1576       C  0.78818096  0.76320663  0.86584741     0.07000
C1577       C  0.75760121  0.77722830  0.85403836    -0.02800
C1578       C  0.72799414  0.75800162  0.85666548    -0.02800
C1579       C  0.72799830  0.72372528  0.86949554     0.07100
C1580       C  0.75901280  0.70824525  0.87593459    -0.03000
Br1581     Br  0.76235253  0.65995442  0.88678542    -0.01600
Br1582     Br  0.82940960  0.70335782  0.88200548    -0.01600
Br1583     Br  0.68749079  0.77792993  0.83931232    -0.01600
Br1584     Br  0.75534406  0.82186864  0.83103126    -0.01600
C1585       C  0.62739241  0.53149887  0.02916068    -0.02700
C1586       C  0.62730015  0.99726858  0.01636888     0.07000
C1587       C  0.62729686  0.99224262  0.97784625    -0.02800
C1588       C  0.63186045  0.52016325  0.95315573    -0.02800
C1589       C  0.63044307  0.55377004  0.96629779     0.07100
C1590       C  0.62566194  0.55907442  0.00434818    -0.03000
Br1591     Br  0.61512312  0.60355510  0.02389929    -0.01600
Br1592     Br  0.63003728  0.54119664  0.08092690    -0.01600
Br1593     Br  0.63682710  0.51233804  0.90142962    -0.01600
Br1594     Br  0.61700346  0.94815639  0.95736027    -0.01600
C1595       C  0.59908608  0.76538539  0.00501917    -0.02700
C1596       C  0.62742832  0.75309723  0.98785708     0.07000
C1597       C  0.65830024  0.76177398  0.00249598    -0.02800
C1598       C  0.66091568  0.78208694  0.03411327    -0.02800
C1599       C  0.63273057  0.79692150  0.04984870     0.07100
C1600       C  0.60166682  0.78659837  0.03614654    -0.03000
Br1601     Br  0.56249647  0.79793612  0.06262866    -0.01600
Br1602     Br  0.55668700  0.75241593  0.98627208    -0.01600
Br1603     Br  0.70315668  0.78586216  0.05699031    -0.01600
Br1604     Br  0.69748910  0.74613575  0.97823147    -0.01600
C1605       C  0.98655590  0.61381620  0.05638160    -0.02700
C1606       C  0.97262537  0.60196057  0.08973293     0.07000
C1607       C  0.98705000  0.61368980  0.12310170    -0.02800
C1608       C  0.01409975  0.63658304  0.12278547    -0.02800
C1609       C  0.02833417  0.64763207  0.08937234     0.07100
C1610       C  0.01248752  0.63781183  0.05628564    -0.03000
Br1611     Br  0.02359050  0.65912158  0.00988501    -0.01600
Br1612     Br  0.97262693  0.59610039  0.00922848    -0.01600
Br1613     Br  0.02944852  0.65443202  0.16915812    -0.01600
Br1614     Br  0.97126413  0.59836313  0.17041056    -0.01600
C1615       C  0.87896311  0.58345036  0.24897091    -0.02700
C1616       C  0.88286862  0.60826746  0.22064625     0.07000
C1617       C  0.88964782  0.64263318  0.23086707    -0.02800
C1618       C  0.88824259  0.65257078  0.26799426    -0.02800
C1619       C  0.88328673  0.62793130  0.29574011     0.07100
C1620       C  0.88075845  0.59315647  0.28604265    -0.03000
Br1621     Br  0.87939513  0.55841615  0.32399710    -0.01600
Br1622     Br  0.86768837  0.53632028  0.23874262    -0.01600
Br1623     Br  0.88959030  0.70049715  0.28036911    -0.01600
Br1624     Br  0.90152453  0.67671948  0.19471682    -0.01600
C1625       C  0.75381217  0.52977569  0.15127408    -0.02700
C1626       C  0.78536596  0.51513385  0.14588223     0.07000
C1627       C  0.78733128  0.97857907  0.14596112    -0.02800
C1628       C  0.75834091  0.95836142  0.14685264    -0.02800
C1629       C  0.72673826  0.97354473  0.14404774     0.07100
C1630       C  0.72531029  0.00951992  0.14855822    -0.03000
Br1631     Br  0.68316784  0.53012069  0.16027927    -0.01600
Br1632     Br  0.74896098  0.57763098  0.16234025    -0.01600
Br1633     Br  0.76319904  0.90998168  0.15572758    -0.01600
Br1634     Br  0.82922033  0.95551201  0.14767670    -0.01600
C1635       C  0.90443688  0.95719200  0.97022760    -0.02700
C1636       C  0.87395376  0.94349162  0.95821623     0.07000
C1637       C  0.84500932  0.95672710  0.97412710    -0.02800
C1638       C  0.84676270  0.97920895  0.00422140    -0.02800
C1639       C  0.87709664  0.99208197  0.01645210     0.07100
C1640       C  0.90584398  0.98158541  0.99869900    -0.03000
Br1641     Br  0.94691153  0.49869510  0.01608311    -0.01600
Br1642     Br  0.94466735  0.94441318  0.94648839    -0.01600
Br1643     Br  0.80642497  0.49326519  0.02891699    -0.01600
Br1644     Br  0.80236861  0.94600052  0.95474619    -0.01600
C1645       C  0.90577671  0.70489886  0.03792981    -0.02700
C1646       C  0.87459672  0.69370360  0.05011203     0.07000
C1647       C  0.84660799  0.70877874  0.03349871    -0.02800
C1648       C  0.84975602  0.73165548  0.00357844    -0.02800
C1649       C  0.88086761  0.74113455  0.99040429     0.07100
C1650       C  0.90885750  0.72718388  0.00743503    -0.03000
Br1651     Br  0.95154512  0.73791467  0.98863377    -0.01600
Br1652     Br  0.94451600  0.69253186  0.06534882    -0.01600
Br1653     Br  0.81099288  0.74855997  0.97858936    -0.01600
Br1654     Br  0.80351336  0.70011148  0.05164676    -0.01600
C1655       C  0.72416143  0.63841100  0.02622622    -0.02700
C1656       C  0.72155304  0.62673382  0.99016648     0.07000
C1657       C  0.74487309  0.60424091  0.97547791    -0.02800
C1658       C  0.77363866  0.59779471  0.99477113    -0.02800
C1659       C  0.77706637  0.61057552  0.03039610     0.07100
C1660       C  0.75150962  0.62925026  0.04699358    -0.03000
Br1661     Br  0.75387973  0.64435459  0.09730836    -0.01600
Br1662     Br  0.69117958  0.66797156  0.04679660    -0.01600
Br1663     Br  0.80756602  0.57083662  0.97231473    -0.01600
Br1664     Br  0.73631712  0.57959840  0.93065219    -0.01600
loop_ 
_geom_bond_atom_site_label_1 
_geom_bond_atom_site_label_2 
_geom_bond_distance 
_geom_bond_site_symmetry_2 
_ccdc_geom_bond_type 
O1          Cr19   1.997       .  S
O1            C9   1.260       .  A
O2          Cr19   2.027       .  S
O2            C3   1.273       .  A
C3            O4   1.262       .  A
C3          C784   1.507       .  S
O4          Cr20   1.975       .  S
O5          Cr20   2.074       .  S
O5            C6   1.278       .  A
C6            O7   1.251       .  A
C6          C814   1.510       .  S
O7          Cr21   1.951       .  S
O8          Cr21   2.003       .  S
O8            C9   1.269       .  A
C9          C774   1.522       .  S
O10         Cr19   2.048       .  S
O10          C18   1.273       .  A
O11         Cr19   2.009       .  S
O11          C12   1.269       .  A
C12          O13   1.274       .  A
C12         C794   1.534       .  S
O13         Cr20   2.042       .  S
O14         Cr20   1.930       .  S
O14          C15   1.246       .  A
C15          O16   1.266       .  A
C15         C827   1.445       .  S
O16         Cr21   2.005       .  S
O17         Cr21   1.963       .  S
O17          C18   1.253       .  A
C18        C1639   1.492   1_545  S
Cr19         O22   1.757       .  S
Cr20         O22   1.764       .  S
Cr21         O22   1.760       .  S
O23         Cr41   2.022       .  S
O23          C31   1.269       .  A
O24         Cr41   2.014       .  S
O24          C25   1.266       .  A
C25          O26   1.267       .  A
C25         C724   1.498       .  S
O26         Cr42   2.001       .  S
O27         Cr42   1.930       .  S
O27          C28   1.246       .  A
C28          O29   1.271       .  A
C28         C757   1.483       .  S
O29         Cr43   2.054       .  S
O30         Cr43   1.977       .  S
O30          C31   1.261       .  A
C31         C737   1.475       .  S
O32         Cr41   2.022       .  S
O32          C40   1.272       .  A
O33         Cr41   2.053       .  S
O33          C34   1.274       .  A
C34          O35   1.248       .  A
C34         C764   1.485       .  S
O35         Cr42   1.940       .  S
O36         Cr42   1.990       .  S
O36          C37   1.257       .  A
C37          O38   1.248       .  A
C37         C824   1.439       .  S
O38         Cr43   1.935       .  S
O39         Cr43   2.029       .  S
O39          C40   1.272       .  A
C40         C747   1.527       .  S
Cr41         O44   1.765       .  S
Cr42         O44   1.766       .  S
Cr43         O44   1.761       .  S
O45         Cr63   2.036       .  S
O45          C53   1.273       .  A
O46         Cr63   2.004       .  S
O46          C47   1.266       .  A
C47          O48   1.264       .  A
C47         C694   1.499       .  S
O48         Cr64   1.986       .  S
O49         Cr64   1.960       .  S
O49          C50   1.253       .  A
C50          O51   1.276       .  A
C50         C804   1.516       .  S
O51         Cr65   2.066       .  S
O52         Cr65   1.962       .  S
O52          C53   1.259       .  A
C53         C704   1.487       .  S
O54         Cr63   2.005       .  S
O54          C62   1.265       .  A
O55         Cr63   2.051       .  S
O55          C56   1.275       .  A
C56          O57   1.253       .  A
C56         C817   1.489       .  S
O57         Cr64   1.952       .  S
O58         Cr64   1.995       .  S
O58          C59   1.264       .  A
C59          O60   1.247       .  A
C59         C714   1.446       .  S
O60         Cr65   1.936       .  S
O61         Cr65   2.041       .  S
O61          C62   1.275       .  A
C62         C744   1.537       .  S
Cr63         O66   1.763       .  S
Cr64         O66   1.758       .  S
Cr65         O66   1.750       .  S
O67         Cr85   2.009       .  S
O67          C75   1.267       .  A
O68         Cr85   2.012       .  S
O68          C69   1.268       .  A
C69          O70   1.263       .  A
C69         C684   1.480       .  S
O70         Cr86   1.977       .  S
O71         Cr86   2.064       .  S
O71          C72   1.276       .  A
C72          O73   1.253       .  A
C72         C767   1.508       .  S
O73         Cr87   1.958       .  S
O74         Cr87   2.004       .  S
O74          C75   1.261       .  A
C75         C677   1.519       .  S
O76         Cr85   2.036       .  S
O76          C84   1.272       .  A
O77         Cr85   2.022       .  S
O77          C78   1.274       .  A
C78          O79   1.274       .  A
C78         C797   1.533       .  S
O79         Cr86   2.036       .  S
O80         Cr86   1.942       .  S
O80          C81   1.249       .  A
C81          O82   1.264       .  A
C81         C717   1.452       .  S
O82         Cr87   2.000       .  S
O83         Cr87   1.960       .  S
O83          C84   1.253       .  A
C84         C754   1.493       .  S
Cr85         O88   1.755       .  S
Cr86         O88   1.757       .  S
Cr87         O88   1.761       .  S
O89        Cr107   2.055       .  S
O89          C97   1.282       .  A
O90        Cr107   2.008       .  S
O90          C91   1.266       .  A
C91          O92   1.259       .  A
C91         C787   1.491       .  S
O92        Cr108   1.975       .  S
O93        Cr108   2.024       .  S
O93          C94   1.265       .  A
C94          O95   1.249       .  A
C94         C647   1.477       .  S
O95        Cr109   1.965       .  S
O96        Cr109   1.957       .  S
O96          C97   1.261       .  A
C97         C624   1.502       .  S
O98        Cr107   2.023       .  S
O98         C106   1.262       .  A
O99        Cr107   2.034       .  S
O99         C100   1.268       .  A
C100        O101   1.266       .  A
C100        C634   1.528       .  S
O101       Cr108   1.992       .  S
O102       Cr108   1.966       .  S
O102        C103   1.262       .  A
C103        O104   1.266       .  A
C103        C664   1.447       .  S
O104       Cr109   1.978       .  S
O105       Cr109   1.984       .  S
O105        C106   1.249       .  A
C106        C654   1.494       .  S
Cr107       O110   1.777       .  S
Cr108       O110   1.774       .  S
Cr109       O110   1.779       .  S
O111       Cr129   2.027       .  S
O111        C119   1.273       .  A
O112       Cr129   2.010       .  S
O112        C113   1.263       .  A
C113        O114   1.269       .  A
C113        C584   1.506       .  S
O114       Cr130   2.014       .  S
O115       Cr130   1.931       .  S
O115        C116   1.238       .  A
C116        O117   1.270       .  A
C116        C614   1.508       .  S
O117       Cr131   2.057       .  S
O118       Cr131   1.963       .  S
O118        C119   1.261       .  A
C119        C734   1.473       .  S
O120       Cr129   2.018       .  S
O120        C128   1.270       .  A
O121       Cr129   2.053       .  S
O121        C122   1.277       .  A
C122        O123   1.247       .  A
C122       C1436   1.494   1_545  S
O123       Cr130   1.933       .  S
O124       Cr130   2.027       .  S
O124        C125   1.272       .  A
C125        O126   1.253       .  A
C125        C667   1.472       .  S
O126       Cr131   1.928       .  S
O127       Cr131   2.042       .  S
O127        C128   1.272       .  A
C128        C594   1.532       .  S
Cr129       O132   1.764       .  S
Cr130       O132   1.768       .  S
Cr131       O132   1.763       .  S
O133       Cr151   2.050       .  S
O133        C141   1.282       .  A
O134       Cr151   1.979       .  S
O134        C135   1.254       .  A
C135        O136   1.262       .  A
C135        C687   1.505       .  S
O136       Cr152   1.985       .  S
O137       Cr152   2.041       .  S
O137        C138   1.272       .  A
C138        O139   1.243       .  A
C138        C607   1.484       .  S
O139       Cr153   1.949       .  S
O140       Cr153   1.956       .  S
O140        C141   1.261       .  A
C141        C564   1.496       .  S
O142       Cr151   2.012       .  S
O142        C150   1.255       .  A
O143       Cr151   2.025       .  S
O143        C144   1.266       .  A
C144        O145   1.271       .  A
C144        C637   1.535       .  S
O145       Cr152   2.007       .  S
O146       Cr152   1.968       .  S
O146        C147   1.266       .  A
C147        O148   1.274       .  A
C147        C574   1.457       .  S
O148       Cr153   1.994       .  S
O149       Cr153   1.973       .  S
O149        C150   1.245       .  A
C150        C617   1.483       .  S
Cr151       O154   1.778       .  S
Cr152       O154   1.765       .  S
Cr153       O154   1.780       .  S
O155       Cr173   2.027       .  S
O155        C163   1.270       .  A
O156       Cr173   2.015       .  S
O156        C157   1.266       .  A
C157        O158   1.263       .  A
C157        C554   1.523       .  S
O158       Cr174   2.009       .  S
O159       Cr174   1.964       .  S
O159        C160   1.253       .  A
C160        O161   1.273       .  A
C160        C657   1.501       .  S
O161       Cr175   2.053       .  S
O162       Cr175   1.972       .  S
O162        C163   1.259       .  A
C163        C707   1.479       .  S
O164       Cr173   2.019       .  S
O164        C172   1.271       .  A
O165       Cr173   2.046       .  S
O165        C166   1.275       .  A
C166        O167   1.252       .  A
C166        C644   1.482       .  S
O167       Cr174   1.949       .  S
O168       Cr174   2.002       .  S
O168        C169   1.265       .  A
C169        O170   1.252       .  A
C169        C577   1.481       .  S
O170       Cr175   1.946       .  S
O171       Cr175   2.037       .  S
O171        C172   1.275       .  A
C172        C597   1.539       .  S
Cr173       O176   1.761       .  S
Cr174       O176   1.760       .  S
Cr175       O176   1.761       .  S
O177       Cr195   2.011       .  S
O177        C185   1.268       .  A
O178       Cr195   2.034       .  S
O178        C179   1.274       .  A
C179        O180   1.258       .  A
C179        C507   1.487       .  S
O180       Cr196   1.962       .  S
O181       Cr196   2.068       .  S
O181        C182   1.277       .  A
C182        O183   1.251       .  A
C182        C524   1.520       .  S
O183       Cr197   1.957       .  S
O184       Cr197   1.994       .  S
O184        C185   1.260       .  A
C185        C777   1.519       .  S
O186       Cr195   2.045       .  S
O186        C194   1.274       .  A
O187       Cr195   2.020       .  S
O187        C188   1.271       .  A
C188        O189   1.277       .  A
C188        C514   1.534       .  S
O189       Cr196   2.049       .  S
O190       Cr196   1.926       .  S
O190        C191   1.247       .  A
C191        O192   1.263       .  A
C191        C544   1.444       .  S
O192       Cr197   2.008       .  S
O193       Cr197   1.952       .  S
O193        C194   1.254       .  A
C194        C534   1.484       .  S
Cr195       O198   1.764       .  S
Cr196       O198   1.759       .  S
Cr197       O198   1.766       .  S
O199       Cr217   2.019       .  S
O199        C207   1.269       .  A
O200       Cr217   2.015       .  S
O200        C201   1.266       .  A
C201        O202   1.270       .  A
C201        C727   1.506       .  S
O202       Cr218   2.010       .  S
O203       Cr218   1.910       .  S
O203        C204   1.236       .  A
C204        O205   1.273       .  A
C204        C494   1.488       .  S
O205       Cr219   2.075       .  S
O206       Cr219   1.975       .  S
O206        C207   1.263       .  A
C207        C464   1.471       .  S
O208       Cr217   2.016       .  S
O208        C216   1.272       .  A
O209       Cr217   2.052       .  S
O209        C210   1.275       .  A
C210        O211   1.246       .  A
C210       C1316   1.480   1_556  S
O211       Cr218   1.933       .  S
O212       Cr218   2.015       .  S
O212        C213   1.262       .  A
C213        O214   1.245       .  A
C213        C547   1.439       .  S
O214       Cr219   1.919       .  S
O215       Cr219   2.036       .  S
O215        C216   1.275       .  A
C216        C474   1.529       .  S
Cr217       O220   1.760       .  S
Cr218       O220   1.761       .  S
Cr219       O220   1.760       .  S
O221       Cr239   2.054       .  S
O221        C229   1.276       .  A
O222       Cr239   2.017       .  S
O222        C223   1.267       .  A
C223        O224   1.255       .  A
C223        C697   1.505       .  S
O224       Cr240   1.990       .  S
O225       Cr240   1.974       .  S
O225        C226   1.260       .  A
C226        O227   1.269       .  A
C226        C537   1.499       .  S
O227       Cr241   2.028       .  S
O228       Cr241   1.971       .  S
O228        C229   1.257       .  A
C229        C444   1.494       .  S
O230       Cr239   2.003       .  S
O230        C238   1.266       .  A
O231       Cr239   2.060       .  S
O231        C232   1.280       .  A
C232        O233   1.253       .  A
C232        C527   1.506       .  S
O233       Cr240   1.952       .  S
O234       Cr240   1.987       .  S
O234        C235   1.259       .  A
C235        O236   1.254       .  A
C235        C454   1.463       .  S
O236       Cr241   1.938       .  S
O237       Cr241   2.033       .  S
O237        C238   1.271       .  A
C238        C477   1.533       .  S
Cr239       O242   1.760       .  S
Cr240       O242   1.766       .  S
Cr241       O242   1.760       .  S
O243       Cr261   2.064       .  S
O243        C251   1.285       .  A
O244       Cr261   1.986       .  S
O244        C245   1.262       .  A
C245        O246   1.261       .  A
C245        C434   1.479       .  S
O246       Cr262   1.983       .  S
O247       Cr262   2.026       .  S
O247        C248   1.266       .  A
C248        O249   1.247       .  A
C248        C487   1.475       .  S
O249       Cr263   1.959       .  S
O250       Cr263   1.951       .  S
O250        C251   1.263       .  A
C251        C674   1.490       .  S
O252       Cr261   2.005       .  S
O252        C260   1.256       .  A
O253       Cr261   2.034       .  S
O253        C254   1.272       .  A
C254        O255   1.265       .  A
C254        C517   1.532       .  S
O255       Cr262   2.003       .  S
O256       Cr262   1.976       .  S
O256        C257   1.266       .  A
C257        O258   1.260       .  A
C257        C457   1.437       .  S
O258       Cr263   1.965       .  S
O259       Cr263   1.974       .  S
O259        C260   1.243       .  A
C260        C497   1.486       .  S
Cr261       O264   1.770       .  S
Cr262       O264   1.776       .  S
Cr263       O264   1.781       .  S
O265       Cr283   1.992       .  S
O265        C273   1.267       .  A
O266       Cr283   2.050       .  S
O266        C267   1.276       .  A
C267        O268   1.253       .  A
C267        C504   1.498       .  S
O268       Cr284   1.956       .  S
O269       Cr284   2.056       .  S
O269        C270   1.273       .  A
C270        O271   1.247       .  A
C270        C404   1.495       .  S
O271       Cr285   1.933       .  S
O272       Cr285   2.018       .  S
O272        C273   1.273       .  A
C273        C627   1.502       .  S
O274       Cr283   2.040       .  S
O274        C282   1.272       .  A
O275       Cr283   2.003       .  S
O275        C276   1.267       .  A
C276        O277   1.275       .  A
C276        C394   1.533       .  S
O277       Cr284   2.042       .  S
O278       Cr284   1.926       .  S
O278        C279   1.244       .  A
C279        O280   1.270       .  A
C279        C427   1.453       .  S
O280       Cr285   2.023       .  S
O281       Cr285   1.948       .  S
O281        C282   1.248       .  A
C282       C1246   1.496   1_545  S
Cr283       O286   1.755       .  S
Cr284       O286   1.751       .  S
Cr285       O286   1.747       .  S
O287       Cr305   2.006       .  S
O287        C295   1.266       .  A
O288       Cr305   2.011       .  S
O288        C289   1.262       .  A
C289        O290   1.269       .  A
C289        C587   1.504       .  S
O290       Cr306   2.012       .  S
O291       Cr306   1.929       .  S
O291        C292   1.240       .  A
C292        O293   1.274       .  A
C292        C384   1.486       .  S
O293       Cr307   2.068       .  S
O294       Cr307   1.961       .  S
O294        C295   1.258       .  A
C295        C467   1.462       .  S
O296       Cr305   2.006       .  S
O296        C304   1.270       .  A
O297       Cr305   2.032       .  S
O297        C298   1.273       .  A
C298        O299   1.248       .  A
C298        C374   1.473       .  S
O299       Cr306   1.939       .  S
O300       Cr306   2.016       .  S
O300        C301   1.264       .  A
C301        O302   1.250       .  A
C301        C424   1.446       .  S
O302       Cr307   1.931       .  S
O303       Cr307   2.058       .  S
O303        C304   1.280       .  A
C304        C364   1.532       .  S
Cr305       O308   1.761       .  S
Cr306       O308   1.761       .  S
Cr307       O308   1.758       .  S
O309       Cr327   2.058       .  S
O309        C317   1.277       .  A
O310       Cr327   2.021       .  S
O310        C311   1.268       .  A
C311        O312   1.264       .  A
C311        C557   1.514       .  S
O312       Cr328   2.007       .  S
O313       Cr328   1.944       .  S
O313        C314   1.235       .  A
C314        O315   1.277       .  A
C314        C417   1.492       .  S
O315       Cr329   2.084       .  S
O316       Cr329   1.961       .  S
O316        C317   1.256       .  A
C317        C447   1.499       .  S
O318       Cr327   1.995       .  S
O318        C326   1.265       .  A
O319       Cr327   2.055       .  S
O319        C320   1.281       .  A
C320        O321   1.257       .  A
C320        C407   1.485       .  S
O321       Cr328   1.942       .  S
O322       Cr328   2.060       .  S
O322        C323   1.274       .  A
C323        O324   1.247       .  A
C323        C354   1.488       .  S
O324       Cr329   1.924       .  S
O325       Cr329   2.066       .  S
O325        C326   1.281       .  A
C326        C367   1.550       .  S
Cr327       O330   1.756       .  S
Cr328       O330   1.751       .  S
Cr329       O330   1.757       .  S
O331       Cr349   2.058       .  S
O331        C339   1.286       .  A
O332       Cr349   1.982       .  S
O332        C333   1.259       .  A
C333        O334   1.264       .  A
C333        C437   1.500       .  S
O334       Cr350   1.993       .  S
O335       Cr350   2.040       .  S
O335        C336   1.268       .  A
C336        O337   1.240       .  A
C336        C377   1.480       .  S
O337       Cr351   1.944       .  S
O338       Cr351   1.958       .  S
O338        C339   1.266       .  A
C339        C567   1.501       .  S
O340       Cr349   2.017       .  S
O340        C348   1.255       .  A
O341       Cr349   2.023       .  S
O341        C342   1.270       .  A
C342        O343   1.263       .  A
C342        C397   1.540       .  S
O343       Cr350   1.998       .  S
O344       Cr350   1.985       .  S
O344        C345   1.271       .  A
C345        O346   1.271       .  A
C345        C357   1.454       .  S
O346       Cr351   1.988       .  S
O347       Cr351   1.965       .  S
O347        C348   1.238       .  A
C348        C387   1.486       .  S
Cr349       O352   1.769       .  S
Cr350       O352   1.768       .  S
Cr351       O352   1.771       .  S
C353        C354   1.423       .  A
C353        C358   1.397       .  A
C353       Br360   1.932       .  S
C354        C355   1.419       .  A
C355        C356   1.409       .  A
C355       Br362   1.923       .  S
C356        C357   1.401       .  A
C356       Br361   1.927       .  S
C357        C358   1.396       .  A
C358       Br359   1.934       .  S
C363        C364   1.419       .  A
C363        C368   1.429       .  A
C363       Br370   1.936       .  S
C364        C365   1.419       .  A
C365        C366   1.429       .  A
C365       Br372   1.935       .  S
C366        C367   1.430       .  A
C366       Br371   1.932       .  S
C367        C368   1.436       .  A
C368       Br369   1.940       .  S
C373        C374   1.399       .  A
C373        C378   1.405       .  A
C373       Br380   1.936       .  S
C374        C375   1.414       .  A
C375        C376   1.410       .  A
C375       Br382   1.933       .  S
C376        C377   1.410       .  A
C376       Br381   1.930       .  S
C377        C378   1.424       .  A
C378       Br379   1.922       .  S
C383        C384   1.426       .  A
C383        C388   1.406       .  A
C383       Br390   1.937       .  S
C384        C385   1.402       .  A
C385       C1218   1.411   1_545  A
C385       Br392   1.930       .  S
C386        C387   1.424       .  A
C386       C1217   1.412       .  A
C386       Br391   1.929       .  S
C387       C1220   1.403       .  A
C388       C1219   1.403   1_545  A
C388       Br389   1.936       .  S
C393        C398   1.425       .  A
C393       C1226   1.422       .  A
C393       Br400   1.939       .  S
C394        C395   1.424       .  A
C394       C1225   1.422   1_545  A
C395        C396   1.426       .  A
C395       Br402   1.933       .  S
C396       C1229   1.428   1_545  A
C396       Br401   1.939       .  S
C397        C398   1.433       .  A
C397       C1228   1.428       .  A
C398       Br399   1.942       .  S
C403        C404   1.419       .  A
C403        C408   1.407       .  A
C403       Br410   1.936       .  S
C404        C405   1.414       .  A
C405        C406   1.410       .  A
C405       Br412   1.920       .  S
C406        C407   1.413       .  A
C406       Br411   1.929       .  S
C407        C408   1.406       .  A
C408       Br409   1.919       .  S
C413       C1246   1.425       .  A
C413       C1250   1.410       .  A
C413       Br420   1.935   1_565  S
C414       C1114   1.497       .  S
C414        C415   1.409       .  A
C414       C1245   1.426       .  A
C415        C416   1.409       .  A
C415       Br422   1.938       .  S
C416        C417   1.431       .  A
C416       Br421   1.941       .  S
C417        C418   1.403       .  A
C418       C1245   1.411       .  A
C418       Br419   1.930       .  S
C423        C424   1.411       .  A
C423        C428   1.395       .  A
C423       Br430   1.934       .  S
C424        C425   1.399       .  A
C425        C426   1.395       .  A
C425       Br432   1.932       .  S
C426        C427   1.416       .  A
C426       Br431   1.932       .  S
C427        C428   1.402       .  A
C428       Br429   1.927       .  S
C433        C434   1.407       .  A
C433        C438   1.409       .  A
C433       Br440   1.933       .  S
C434        C435   1.407       .  A
C435        C436   1.411       .  A
C435       Br442   1.935       .  S
C436        C437   1.425       .  A
C436       Br441   1.936       .  S
C437        C438   1.420       .  A
C438       Br439   1.933       .  S
C443        C444   1.410       .  A
C443        C448   1.409       .  A
C443       Br450   1.927       .  S
C444        C445   1.414       .  A
C445        C446   1.421       .  A
C445       Br452   1.928       .  S
C446        C447   1.414       .  A
C446       Br451   1.926       .  S
C447        C448   1.417       .  A
C448       Br449   1.936       .  S
C453        C454   1.410       .  A
C453        C458   1.390       .  A
C453       Br460   1.927       .  S
C454        C455   1.414   1_556  A
C455        C456   1.397       .  A
C455       Br462   1.935       .  S
C456        C457   1.401       .  A
C456       Br461   1.921       .  S
C457        C458   1.398   1_554  A
C458       Br459   1.932       .  S
C463        C464   1.408       .  A
C463        C468   1.406       .  A
C463       Br470   1.921       .  S
C464        C465   1.412       .  A
C465        C466   1.400       .  A
C465       Br472   1.925       .  S
C466        C467   1.406       .  A
C466       Br471   1.937       .  S
C467        C468   1.408       .  A
C468       Br469   1.930       .  S
C473        C478   1.427       .  A
C473       C1306   1.419       .  A
C473       Br480   1.934       .  S
C474        C475   1.423       .  A
C474       C1305   1.420   1_545  A
C475        C476   1.421       .  A
C475       Br482   1.929       .  S
C476       C1309   1.420   1_545  A
C476       Br481   1.938       .  S
C477        C478   1.429       .  A
C477       C1308   1.422       .  A
C478       Br479   1.937       .  S
C483       C1316   1.408   1_565  A
C483       C1320   1.413       .  A
C483       Br490   1.927   1_565  S
C484       C1042   1.480   1_554  S
C484        C485   1.413       .  A
C484       C1315   1.408       .  A
C485        C486   1.409       .  A
C485       Br492   1.933   1_554  S
C486        C487   1.409       .  A
C486       Br491   1.930       .  S
C487        C488   1.412       .  A
C488       C1315   1.413       .  A
C488       Br489   1.926       .  S
C493        C494   1.428   1_554  A
C493        C498   1.404       .  A
C493       Br500   1.937       .  S
C494        C495   1.404       .  A
C495        C496   1.414       .  A
C495       Br502   1.930       .  S
C496        C497   1.423   1_556  A
C496       Br501   1.928       .  S
C497        C498   1.402       .  A
C498       Br499   1.939       .  S
C503        C504   1.424       .  A
C503        C508   1.409       .  A
C503       Br510   1.942       .  S
C504        C505   1.415       .  A
C505        C506   1.412       .  A
C505       Br512   1.931       .  S
C506        C507   1.414       .  A
C506       Br511   1.931       .  S
C507        C508   1.411       .  A
C508       Br509   1.937       .  S
C513        C514   1.422       .  A
C513        C518   1.424       .  A
C513       Br520   1.920       .  S
C514        C515   1.420       .  A
C515        C516   1.428       .  A
C515       Br522   1.930       .  S
C516        C517   1.424       .  A
C516       Br521   1.932       .  S
C517        C518   1.420       .  A
C518       Br519   1.934       .  S
C523        C524   1.414       .  A
C523        C528   1.417       .  A
C523       Br530   1.927       .  S
C524        C525   1.425       .  A
C525       C1358   1.418       .  A
C525       Br532   1.931       .  S
C526        C527   1.411   1_554  A
C526       C1357   1.418       .  A
C526       Br531   1.937   1_554  S
C527       C1360   1.421   1_556  A
C528       C1359   1.424   1_544  A
C528       Br529   1.937   1_545  S
C533        C534   1.411   1_556  A
C533        C538   1.412       .  A
C533       Br540   1.934   1_556  S
C534        C535   1.409   1_554  A
C535        C536   1.411       .  A
C535       Br542   1.926   1_556  S
C536        C537   1.411       .  A
C536       Br541   1.925       .  S
C537        C538   1.419       .  A
C538       Br539   1.934       .  S
C543        C544   1.414       .  A
C543        C548   1.392       .  A
C543       Br550   1.930       .  S
C544        C545   1.402   1_554  A
C545        C546   1.392       .  A
C545       Br552   1.933       .  S
C546        C547   1.412       .  A
C546       Br551   1.936       .  S
C547        C548   1.398   1_556  A
C548       Br549   1.934       .  S
C553        C554   1.424       .  A
C553        C558   1.422   1_655  A
C553       Br560   1.934       .  S
C554        C555   1.428       .  A
C555        C556   1.418   1_655  A
C555       Br562   1.943       .  S
C556        C557   1.415       .  A
C556       Br561   1.927       .  S
C557        C558   1.417       .  A
C558       Br559   1.932       .  S
C563        C564   1.405       .  A
C563        C568   1.412       .  A
C563       Br570   1.928       .  S
C564        C565   1.420       .  A
C565        C566   1.415       .  A
C565       Br572   1.928       .  S
C566        C567   1.409       .  A
C566       Br571   1.928       .  S
C567        C568   1.419       .  A
C568       Br569   1.923       .  S
C573        C574   1.406       .  A
C573        C578   1.397       .  A
C573       Br580   1.907       .  S
C574        C575   1.403       .  A
C575        C576   1.403       .  A
C575       Br582   1.933       .  S
C576        C577   1.419       .  A
C576       Br581   1.930       .  S
C577        C578   1.413       .  A
C578       Br579   1.944       .  S
C583        C584   1.406       .  A
C583        C588   1.416       .  A
C583       Br590   1.924       .  S
C584        C585   1.421       .  A
C585        C586   1.419       .  A
C585       Br592   1.922       .  S
C586        C587   1.404       .  A
C586       Br591   1.927       .  S
C587        C588   1.417       .  A
C588       Br589   1.922       .  S
C593        C594   1.424       .  A
C593       C1430   1.428       .  A
C593       Br600   1.937       .  S
C594       C1427   1.417   1_545  A
C595        C596   1.426       .  A
C595       C1426   1.418       .  A
C595       Br602   1.933       .  S
C596        C597   1.428       .  A
C596       Br601   1.937       .  S
C597        C598   1.424       .  A
C598       C1425   1.428       .  A
C598      Br1431   1.934       .  S
Br599      C1430   1.934       .  S
C603        C604   1.403       .  A
C603        C608   1.413       .  A
C603       Br610   1.931       .  S
C604        C954   1.490       .  S
C604        C605   1.417       .  A
C605        C606   1.408       .  A
C605      Br1444   1.915       .  S
C606        C607   1.404       .  A
C606       Br611   1.934       .  S
C607        C608   1.425       .  A
C608       Br609   1.924       .  S
Br612      C1437   1.919   1_545  S
C613        C614   1.418       .  A
C613        C618   1.410       .  A
C613       Br620   1.937       .  S
C614        C615   1.435       .  A
C615        C616   1.411       .  A
C615       Br622   1.928       .  S
C616        C617   1.399       .  A
C616       Br621   1.936       .  S
C617        C618   1.403       .  A
C618       Br619   1.903       .  S
C623        C624   1.415       .  A
C623        C628   1.417   1_655  A
C623       Br630   1.931       .  S
C624        C625   1.419       .  A
C625        C626   1.410   1_655  A
C625       Br632   1.937       .  S
C626        C627   1.414       .  A
C626       Br631   1.935       .  S
C627        C628   1.420       .  A
C628       Br629   1.933       .  S
C633        C634   1.422       .  A
C633        C638   1.425       .  A
C633       Br640   1.932       .  S
C634        C635   1.419       .  A
C635        C636   1.423       .  A
C635       Br642   1.938       .  S
C636        C637   1.428       .  A
C636       Br641   1.933       .  S
C637        C638   1.425       .  A
C638       Br639   1.937       .  S
C643        C648   1.413   1_565  A
C643       C1476   1.411       .  A
C643       Br650   1.929       .  S
C644        C645   1.413       .  A
C644       C1475   1.410       .  A
C645       C1478   1.409       .  A
C645       Br652   1.933       .  S
C646        C647   1.410       .  A
C646       C1477   1.410   1_545  A
C646       Br651   1.929       .  S
C647        C648   1.410       .  A
C648       Br649   1.926       .  S
C653        C654   1.412       .  A
C653        C658   1.415       .  A
C653       Br660   1.925       .  S
C654        C655   1.414       .  A
C655        C656   1.415       .  A
C655       Br662   1.931       .  S
C656        C657   1.415       .  A
C656       Br661   1.929       .  S
C657        C658   1.415       .  A
C658       Br659   1.928       .  S
C663        C664   1.408       .  A
C663        C668   1.402       .  A
C663       Br670   1.917       .  S
C664        C665   1.399       .  A
C665        C666   1.392       .  A
C665       Br672   1.934       .  S
C666        C667   1.413       .  A
C666       Br671   1.922       .  S
C667        C668   1.408       .  A
C668       Br669   1.932       .  S
C673        C674   1.405       .  A
C673        C678   1.414       .  A
C673       Br680   1.937       .  S
C674        C675   1.406       .  A
C675        C676   1.418       .  A
C675       Br682   1.928       .  S
C676        C677   1.428       .  A
C676       Br681   1.935       .  S
C677        C678   1.433       .  A
C678       Br679   1.942       .  S
C683        C684   1.406       .  A
C683        C688   1.413       .  A
C683       Br690   1.935       .  S
C684        C685   1.409       .  A
C685        C686   1.405       .  A
C685       Br692   1.934       .  S
C686        C687   1.421       .  A
C686       Br691   1.939       .  S
C687        C688   1.429       .  A
C688       Br689   1.936       .  S
C693        C694   1.413       .  A
C693        C698   1.409   1_655  A
C693       Br700   1.936       .  S
C694        C695   1.419       .  A
C695        C696   1.417   1_655  A
C695       Br702   1.929       .  S
C696        C697   1.415       .  A
C696       Br701   1.935       .  S
C697        C698   1.427       .  A
C698       Br699   1.945       .  S
C703        C704   1.416       .  A
C703        C708   1.414       .  A
C703       Br710   1.930       .  S
C704        C705   1.416       .  A
C705        C706   1.403       .  A
C705       Br712   1.940       .  S
C706        C707   1.408       .  A
C706       Br711   1.928       .  S
C707        C708   1.410       .  A
C708       Br709   1.931       .  S
C713        C714   1.405   1_554  A
C713        C718   1.393       .  A
C713       Br720   1.938       .  S
C714        C715   1.414       .  A
C715        C716   1.392       .  A
C715       Br722   1.943       .  S
C716        C717   1.404   1_556  A
C716       Br721   1.929       .  S
C717        C718   1.414       .  A
C718       Br719   1.935       .  S
C723        C724   1.400       .  A
C723        C728   1.414       .  A
C723       Br730   1.933       .  S
C724        C725   1.420       .  A
C725        C726   1.414       .  A
C725       Br732   1.917       .  S
C726        C727   1.405       .  A
C726       Br731   1.930       .  S
C727        C728   1.428       .  A
C728       Br729   1.915       .  S
C733        C734   1.409       .  A
C733        C738   1.402       .  A
C733       Br740   1.934       .  S
C734        C735   1.411       .  A
C735        C736   1.411       .  A
C735       Br742   1.928       .  S
C736        C737   1.409       .  A
C736       Br741   1.926       .  S
C737        C738   1.410       .  A
C738       Br739   1.926       .  S
C743        C744   1.427       .  A
C743        C748   1.424       .  A
C743       Br750   1.940       .  S
C744        C745   1.428       .  A
C745        C746   1.427       .  A
C745       Br752   1.934       .  S
C746        C747   1.417       .  A
C746       Br751   1.933       .  S
C747        C748   1.423       .  A
C748       Br749   1.933       .  S
C753        C758   1.404       .  A
C753       C1586   1.411   1_545  A
C753       Br760   1.934       .  S
C754        C755   1.423   1_554  A
C754       C1585   1.410       .  A
C755       C1588   1.412       .  A
C755       Br762   1.930       .  S
C756        C757   1.403       .  A
C756       C1587   1.411   1_545  A
C756       Br761   1.929       .  S
C757        C758   1.421   1_556  A
C758       Br759   1.936       .  S
C763        C764   1.407   1_554  A
C763        C768   1.416       .  A
C763       Br770   1.928   1_554  S
C764        C765   1.410   1_556  A
C765        C766   1.411       .  A
C765       Br772   1.938   1_554  S
C766        C767   1.417       .  A
C766       Br771   1.918       .  S
C767        C768   1.420       .  A
C768       Br769   1.928       .  S
C773        C774   1.423       .  A
C773        C778   1.415   1_655  A
C773       Br780   1.942       .  S
C774        C775   1.429       .  A
C775        C776   1.421   1_655  A
C775       Br782   1.939       .  S
C776        C777   1.419       .  A
C776       Br781   1.937       .  S
C777        C778   1.423       .  A
C778       Br779   1.938       .  S
C783        C784   1.422       .  A
C783        C788   1.411       .  A
C783       Br790   1.937       .  S
C784        C785   1.423       .  A
C785        C786   1.416       .  A
C785       Br792   1.933       .  S
C786        C787   1.409       .  A
C786       Br791   1.931       .  S
C787        C788   1.411       .  A
C788       Br789   1.934       .  S
C793        C794   1.426       .  A
C793       C1630   1.428       .  A
C793       Br800   1.928       .  S
C794       C1627   1.421   1_545  A
C795        C796   1.423       .  A
C795       C1626   1.422       .  A
C795       Br802   1.937       .  S
C796        C797   1.423       .  A
C796       Br801   1.927       .  S
C797        C798   1.417       .  A
C798       C1625   1.427       .  A
C798      Br1631   1.932       .  S
Br799      C1630   1.931       .  S
C803        C804   1.425       .  A
C803        C808   1.417   1_556  A
C803       Br810   1.932       .  S
C804        C805   1.422       .  A
C805        C806   1.416   1_556  A
C805       Br812   1.924       .  S
C806        C807   1.410       .  A
C806      Br1643   1.936       .  S
C807        C850   1.494       .  S
C807        C808   1.408       .  A
C808      Br1641   1.930       .  S
Br809      C1640   1.931   1_544  S
Br811      C1638   1.935       .  S
C813        C814   1.419       .  A
C813        C818   1.414       .  A
C813       Br820   1.929       .  S
C814        C815   1.419       .  A
C815        C816   1.413       .  A
C815       Br822   1.913       .  S
C816        C817   1.410   1_554  A
C816       Br821   1.939   1_554  S
C817        C818   1.407   1_556  A
C818       Br819   1.922   1_554  S
C823        C824   1.401   1_554  A
C823        C828   1.393       .  A
C823       Br830   1.935       .  S
C824        C825   1.409       .  A
C825        C826   1.390       .  A
C825       Br832   1.936       .  S
C826        C827   1.403   1_556  A
C826       Br831   1.932       .  S
C827        C828   1.417       .  A
C828       Br829   1.936       .  S
O833       Cr851   1.999       .  S
O833        C841   1.260       .  A
O834       Cr851   2.027       .  S
O834        C835   1.273       .  A
C835        O836   1.262       .  A
C835       C1616   1.507       .  S
O836       Cr852   1.973       .  S
O837       Cr852   2.073       .  S
O837        C838   1.278       .  A
C838        O839   1.252       .  A
C838       C1646   1.511       .  S
O839       Cr853   1.954       .  S
O840       Cr853   1.999       .  S
O840        C841   1.267       .  A
C841       C1606   1.521       .  S
O842       Cr851   2.049       .  S
O842        C850   1.274       .  A
O843       Cr851   2.007       .  S
O843        C844   1.268       .  A
C844        O845   1.274       .  A
C844       C1626   1.534       .  S
O845       Cr852   2.042       .  S
O846       Cr852   1.931       .  S
O846        C847   1.246       .  A
C847        O848   1.265       .  A
C847       C1659   1.445       .  S
O848       Cr853   2.003       .  S
O849       Cr853   1.965       .  S
O849        C850   1.254       .  A
Cr851       O854   1.758       .  S
Cr852       O854   1.763       .  S
Cr853       O854   1.761       .  S
O855       Cr873   2.020       .  S
O855        C863   1.269       .  A
O856       Cr873   2.016       .  S
O856        C857   1.267       .  A
C857        O858   1.267       .  A
C857       C1556   1.499       .  S
O858       Cr874   2.001       .  S
O859       Cr874   1.930       .  S
O859        C860   1.245       .  A
C860        O861   1.272       .  A
C860       C1589   1.485       .  S
O861       Cr875   2.057       .  S
O862       Cr875   1.977       .  S
O862        C863   1.262       .  A
C863       C1569   1.474       .  S
O864       Cr873   2.026       .  S
O864        C872   1.273       .  A
O865       Cr873   2.052       .  S
O865        C866   1.273       .  A
C866        O867   1.248       .  A
C866       C1596   1.484       .  S
O867       Cr874   1.940       .  S
O868       Cr874   1.991       .  S
O868        C869   1.257       .  A
C869        O870   1.248       .  A
C869       C1656   1.439       .  S
O870       Cr875   1.934       .  S
O871       Cr875   2.030       .  S
O871        C872   1.272       .  A
C872       C1579   1.529       .  S
Cr873       O876   1.766       .  S
Cr874       O876   1.767       .  S
Cr875       O876   1.761       .  S
O877       Cr895   2.039       .  S
O877        C885   1.273       .  A
O878       Cr895   2.006       .  S
O878        C879   1.266       .  A
C879        O880   1.264       .  A
C879       C1526   1.500       .  S
O880       Cr896   1.985       .  S
O881       Cr896   1.960       .  S
O881        C882   1.253       .  A
C882        O883   1.275       .  A
C882       C1636   1.513       .  S
O883       Cr897   2.064       .  S
O884       Cr897   1.962       .  S
O884        C885   1.259       .  A
C885       C1536   1.492       .  S
O886       Cr895   2.005       .  S
O886        C894   1.266       .  A
O887       Cr895   2.052       .  S
O887        C888   1.275       .  A
C888        O889   1.253       .  A
C888       C1649   1.491       .  S
O889       Cr896   1.953       .  S
O890       Cr896   1.999       .  S
O890        C891   1.264       .  A
C891        O892   1.247       .  A
C891       C1546   1.450       .  S
O892       Cr897   1.935       .  S
O893       Cr897   2.040       .  S
O893        C894   1.274       .  A
C894       C1576   1.537       .  S
Cr895       O898   1.762       .  S
Cr896       O898   1.759       .  S
Cr897       O898   1.749       .  S
O899       Cr917   2.011       .  S
O899        C907   1.266       .  A
O900       Cr917   2.011       .  S
O900        C901   1.268       .  A
C901        O902   1.262       .  A
C901       C1516   1.479       .  S
O902       Cr918   1.971       .  S
O903       Cr918   2.062       .  S
O903        C904   1.276       .  A
C904        O905   1.253       .  A
C904       C1599   1.508       .  S
O905       Cr919   1.957       .  S
O906       Cr919   2.002       .  S
O906        C907   1.261       .  A
C907       C1509   1.521       .  S
O908       Cr917   2.032       .  S
O908        C916   1.271       .  A
O909       Cr917   2.025       .  S
O909        C910   1.274       .  A
C910        O911   1.274       .  A
C910       C1629   1.536       .  S
O911       Cr918   2.037       .  S
O912       Cr918   1.944       .  S
O912        C913   1.250       .  A
C913        O914   1.264       .  A
C913       C1549   1.455       .  S
O914       Cr919   2.001       .  S
O915       Cr919   1.962       .  S
O915        C916   1.254       .  A
C916       C1586   1.493       .  S
Cr917       O920   1.755       .  S
Cr918       O920   1.756       .  S
Cr919       O920   1.761       .  S
O921       Cr939   2.058       .  S
O921        C929   1.282       .  A
O922       Cr939   2.009       .  S
O922        C923   1.267       .  A
C923        O924   1.258       .  A
C923       C1619   1.490       .  S
O924       Cr940   1.971       .  S
O925       Cr940   2.022       .  S
O925        C926   1.264       .  A
C926        O927   1.249       .  A
C926       C1479   1.474       .  S
O927       Cr941   1.964       .  S
O928       Cr941   1.960       .  S
O928        C929   1.262       .  A
C929       C1456   1.505       .  S
O930       Cr939   2.026       .  S
O930        C938   1.262       .  A
O931       Cr939   2.035       .  S
O931        C932   1.268       .  A
C932        O933   1.266       .  A
C932       C1466   1.528       .  S
O933       Cr940   1.991       .  S
O934       Cr940   1.966       .  S
O934        C935   1.262       .  A
C935        O936   1.266       .  A
C935       C1496   1.448       .  S
O936       Cr941   1.978       .  S
O937       Cr941   1.983       .  S
O937        C938   1.249       .  A
C938       C1486   1.494       .  S
Cr939       O942   1.776       .  S
Cr940       O942   1.775       .  S
Cr941       O942   1.780       .  S
O943       Cr961   2.025       .  S
O943        C951   1.273       .  A
O944       Cr961   2.009       .  S
O944        C945   1.263       .  A
C945        O946   1.271       .  A
C945       C1416   1.507       .  S
O946       Cr962   2.017       .  S
O947       Cr962   1.932       .  S
O947        C948   1.239       .  A
C948        O949   1.270       .  A
C948       C1446   1.508       .  S
O949       Cr963   2.057       .  S
O950       Cr963   1.963       .  S
O950        C951   1.261       .  A
C951       C1566   1.472       .  S
O952       Cr961   2.019       .  S
O952        C960   1.270       .  A
O953       Cr961   2.050       .  S
O953        C954   1.276       .  A
C954        O955   1.247       .  A
O955       Cr962   1.933       .  S
O956       Cr962   2.031       .  S
O956        C957   1.273       .  A
C957        O958   1.252       .  A
C957       C1499   1.474       .  S
O958       Cr963   1.929       .  S
O959       Cr963   2.042       .  S
O959        C960   1.272       .  A
C960       C1426   1.533       .  S
Cr961       O964   1.765       .  S
Cr962       O964   1.766       .  S
Cr963       O964   1.761       .  S
O965       Cr983   2.051       .  S
O965        C973   1.282       .  A
O966       Cr983   1.976       .  S
O966        C967   1.255       .  A
C967        O968   1.262       .  A
C967       C1519   1.500       .  S
O968       Cr984   1.988       .  S
O969       Cr984   2.041       .  S
O969        C970   1.273       .  A
C970        O971   1.245       .  A
C970       C1439   1.488       .  S
O971       Cr985   1.953       .  S
O972       Cr985   1.955       .  S
O972        C973   1.259       .  A
C973       C1396   1.496       .  S
O974       Cr983   2.012       .  S
O974        C982   1.255       .  A
O975       Cr983   2.029       .  S
O975        C976   1.267       .  A
C976        O977   1.269       .  A
C976       C1469   1.532       .  S
O977       Cr984   2.003       .  S
O978       Cr984   1.967       .  S
O978        C979   1.265       .  A
C979        O980   1.272       .  A
C979       C1406   1.453       .  S
O980       Cr985   1.989       .  S
O981       Cr985   1.976       .  S
O981        C982   1.247       .  A
C982       C1449   1.483       .  S
Cr983       O986   1.776       .  S
Cr984       O986   1.766       .  S
Cr985       O986   1.779       .  S
O987      Cr1005   2.029       .  S
O987        C995   1.271       .  A
O988      Cr1005   2.014       .  S
O988        C989   1.267       .  A
C989        O990   1.262       .  A
C989       C1386   1.518       .  S
O990      Cr1006   2.007       .  S
O991      Cr1006   1.967       .  S
O991        C992   1.254       .  A
C992        O993   1.272       .  A
C992       C1489   1.500       .  S
O993      Cr1007   2.049       .  S
O994      Cr1007   1.970       .  S
O994        C995   1.258       .  A
C995       C1539   1.481       .  S
O996      Cr1005   2.018       .  S
O996       C1004   1.271       .  A
O997      Cr1005   2.047       .  S
O997        C998   1.275       .  A
C998        O999   1.252       .  A
C998       C1476   1.484       .  S
O999      Cr1006   1.953       .  S
O1000     Cr1006   1.993       .  S
O1000      C1001   1.263       .  A
C1001      O1002   1.253       .  A
C1001      C1409   1.478       .  S
O1002     Cr1007   1.948       .  S
O1003     Cr1007   2.036       .  S
O1003      C1004   1.274       .  A
C1004      C1429   1.537       .  S
Cr1005     O1008   1.760       .  S
Cr1006     O1008   1.760       .  S
Cr1007     O1008   1.763       .  S
O1009     Cr1027   2.012       .  S
O1009      C1017   1.268       .  A
O1010     Cr1027   2.033       .  S
O1010      C1011   1.274       .  A
C1011      O1012   1.259       .  A
C1011      C1339   1.486       .  S
O1012     Cr1028   1.963       .  S
O1013     Cr1028   2.070       .  S
O1013      C1014   1.277       .  A
C1014      O1015   1.250       .  A
C1014      C1356   1.522       .  S
O1015     Cr1029   1.957       .  S
O1016     Cr1029   1.994       .  S
O1016      C1017   1.259       .  A
C1017      C1609   1.520       .  S
O1018     Cr1027   2.046       .  S
O1018      C1026   1.275       .  A
O1019     Cr1027   2.021       .  S
O1019      C1020   1.271       .  A
C1020      O1021   1.277       .  A
C1020      C1346   1.534       .  S
O1021     Cr1028   2.049       .  S
O1022     Cr1028   1.924       .  S
O1022      C1023   1.247       .  A
C1023      O1024   1.263       .  A
C1023      C1376   1.442       .  S
O1024     Cr1029   2.007       .  S
O1025     Cr1029   1.952       .  S
O1025      C1026   1.254       .  A
C1026      C1366   1.483       .  S
Cr1027     O1030   1.763       .  S
Cr1028     O1030   1.758       .  S
Cr1029     O1030   1.765       .  S
O1031     Cr1049   2.017       .  S
O1031      C1039   1.269       .  A
O1032     Cr1049   2.017       .  S
O1032      C1033   1.266       .  A
C1033      O1034   1.270       .  A
C1033      C1559   1.507       .  S
O1034     Cr1050   2.011       .  S
O1035     Cr1050   1.909       .  S
O1035      C1036   1.236       .  A
C1036      O1037   1.273       .  A
C1036      C1326   1.489       .  S
O1037     Cr1051   2.075       .  S
O1038     Cr1051   1.977       .  S
O1038      C1039   1.263       .  A
C1039      C1296   1.473       .  S
O1040     Cr1049   2.015       .  S
O1040      C1048   1.272       .  A
O1041     Cr1049   2.050       .  S
O1041      C1042   1.275       .  A
C1042      O1043   1.246       .  A
O1043     Cr1050   1.936       .  S
O1044     Cr1050   2.014       .  S
O1044      C1045   1.262       .  A
C1045      O1046   1.245       .  A
C1045      C1379   1.438       .  S
O1046     Cr1051   1.916       .  S
O1047     Cr1051   2.036       .  S
O1047      C1048   1.275       .  A
C1048      C1306   1.528       .  S
Cr1049     O1052   1.759       .  S
Cr1050     O1052   1.761       .  S
Cr1051     O1052   1.761       .  S
O1053     Cr1071   2.053       .  S
O1053      C1061   1.276       .  A
O1054     Cr1071   2.017       .  S
O1054      C1055   1.267       .  A
C1055      O1056   1.255       .  A
C1055      C1529   1.506       .  S
O1056     Cr1072   1.989       .  S
O1057     Cr1072   1.973       .  S
O1057      C1058   1.260       .  A
C1058      O1059   1.269       .  A
C1058      C1369   1.500       .  S
O1059     Cr1073   2.028       .  S
O1060     Cr1073   1.977       .  S
O1060      C1061   1.258       .  A
C1061      C1276   1.499       .  S
O1062     Cr1071   2.004       .  S
O1062      C1070   1.268       .  A
O1063     Cr1071   2.064       .  S
O1063      C1064   1.280       .  A
C1064      O1065   1.253       .  A
C1064      C1359   1.508       .  S
O1065     Cr1072   1.951       .  S
O1066     Cr1072   1.985       .  S
O1066      C1067   1.259       .  A
C1067      O1068   1.256       .  A
C1067      C1286   1.464       .  S
O1068     Cr1073   1.945       .  S
O1069     Cr1073   2.035       .  S
O1069      C1070   1.271       .  A
C1070      C1309   1.532       .  S
Cr1071     O1074   1.761       .  S
Cr1072     O1074   1.766       .  S
Cr1073     O1074   1.762       .  S
O1075     Cr1093   2.064       .  S
O1075      C1083   1.285       .  A
O1076     Cr1093   1.985       .  S
O1076      C1077   1.262       .  A
C1077      O1078   1.261       .  A
C1077      C1266   1.478       .  S
O1078     Cr1094   1.983       .  S
O1079     Cr1094   2.029       .  S
O1079      C1080   1.266       .  A
C1080      O1081   1.246       .  A
C1080      C1319   1.474       .  S
O1081     Cr1095   1.954       .  S
O1082     Cr1095   1.951       .  S
O1082      C1083   1.263       .  A
C1083      C1506   1.490       .  S
O1084     Cr1093   2.007       .  S
O1084      C1092   1.256       .  A
O1085     Cr1093   2.032       .  S
O1085      C1086   1.272       .  A
C1086      O1087   1.265       .  A
C1086      C1349   1.531       .  S
O1087     Cr1094   2.004       .  S
O1088     Cr1094   1.978       .  S
O1088      C1089   1.266       .  A
C1089      O1090   1.260       .  A
C1089      C1289   1.439       .  S
O1090     Cr1095   1.965       .  S
O1091     Cr1095   1.972       .  S
O1091      C1092   1.243       .  A
C1092      C1329   1.485       .  S
Cr1093     O1096   1.771       .  S
Cr1094     O1096   1.777       .  S
Cr1095     O1096   1.779       .  S
O1097     Cr1115   1.994       .  S
O1097      C1105   1.268       .  A
O1098     Cr1115   2.054       .  S
O1098      C1099   1.277       .  A
C1099      O1100   1.253       .  A
C1099      C1336   1.498       .  S
O1100     Cr1116   1.955       .  S
O1101     Cr1116   2.062       .  S
O1101      C1102   1.274       .  A
C1102      O1103   1.246       .  A
C1102      C1236   1.497       .  S
O1103     Cr1117   1.931       .  S
O1104     Cr1117   2.020       .  S
O1104      C1105   1.274       .  A
C1105      C1459   1.505       .  S
O1106     Cr1115   2.047       .  S
O1106      C1114   1.273       .  A
O1107     Cr1115   2.001       .  S
O1107      C1108   1.267       .  A
C1108      O1109   1.276       .  A
C1108      C1226   1.534       .  S
O1109     Cr1116   2.044       .  S
O1110     Cr1116   1.925       .  S
O1110      C1111   1.243       .  A
C1111      O1112   1.271       .  A
C1111      C1259   1.452       .  S
O1112     Cr1117   2.025       .  S
O1113     Cr1117   1.944       .  S
O1113      C1114   1.246       .  A
Cr1115     O1118   1.756       .  S
Cr1116     O1118   1.751       .  S
Cr1117     O1118   1.745       .  S
O1119     Cr1137   2.006       .  S
O1119      C1127   1.266       .  A
O1120     Cr1137   2.011       .  S
O1120      C1121   1.261       .  A
C1121      O1122   1.268       .  A
C1121      C1419   1.504       .  S
O1122     Cr1138   2.012       .  S
O1123     Cr1138   1.931       .  S
O1123      C1124   1.240       .  A
C1124      O1125   1.274       .  A
C1124      C1216   1.486       .  S
O1125     Cr1139   2.068       .  S
O1126     Cr1139   1.961       .  S
O1126      C1127   1.258       .  A
C1127      C1299   1.464       .  S
O1128     Cr1137   2.005       .  S
O1128      C1136   1.269       .  A
O1129     Cr1137   2.032       .  S
O1129      C1130   1.273       .  A
C1130      O1131   1.249       .  A
C1130      C1206   1.473       .  S
O1131     Cr1138   1.940       .  S
O1132     Cr1138   2.016       .  S
O1132      C1133   1.264       .  A
C1133      O1134   1.251       .  A
C1133      C1256   1.447       .  S
O1134     Cr1139   1.934       .  S
O1135     Cr1139   2.060       .  S
O1135      C1136   1.280       .  A
C1136      C1196   1.530       .  S
Cr1137     O1140   1.762       .  S
Cr1138     O1140   1.762       .  S
Cr1139     O1140   1.759       .  S
O1141     Cr1159   2.067       .  S
O1141      C1149   1.279       .  A
O1142     Cr1159   2.015       .  S
O1142      C1143   1.267       .  A
C1143      O1144   1.266       .  A
C1143      C1389   1.511       .  S
O1144     Cr1160   2.009       .  S
O1145     Cr1160   1.942       .  S
O1145      C1146   1.236       .  A
C1146      O1147   1.277       .  A
C1146      C1249   1.489       .  S
O1147     Cr1161   2.079       .  S
O1148     Cr1161   1.960       .  S
O1148      C1149   1.253       .  A
C1149      C1279   1.509       .  S
O1150     Cr1159   1.986       .  S
O1150      C1158   1.263       .  A
O1151     Cr1159   2.059       .  S
O1151      C1152   1.282       .  A
C1152      O1153   1.257       .  A
C1152      C1239   1.486       .  S
O1153     Cr1160   1.941       .  S
O1154     Cr1160   2.062       .  S
O1154      C1155   1.275       .  A
C1155      O1156   1.246       .  A
C1155      C1186   1.489       .  S
O1156     Cr1161   1.923       .  S
O1157     Cr1161   2.065       .  S
O1157      C1158   1.281       .  A
C1158      C1199   1.548       .  S
Cr1159     O1162   1.756       .  S
Cr1160     O1162   1.751       .  S
Cr1161     O1162   1.753       .  S
O1163     Cr1181   2.058       .  S
O1163      C1171   1.286       .  A
O1164     Cr1181   1.980       .  S
O1164      C1165   1.259       .  A
C1165      O1166   1.263       .  A
C1165      C1269   1.498       .  S
O1166     Cr1182   1.992       .  S
O1167     Cr1182   2.036       .  S
O1167      C1168   1.268       .  A
C1168      O1169   1.241       .  A
C1168      C1209   1.479       .  S
O1169     Cr1183   1.946       .  S
O1170     Cr1183   1.960       .  S
O1170      C1171   1.265       .  A
C1171      C1399   1.502       .  S
O1172     Cr1181   2.016       .  S
O1172      C1180   1.255       .  A
O1173     Cr1181   2.026       .  S
O1173      C1174   1.270       .  A
C1174      O1175   1.262       .  A
C1174      C1229   1.539       .  S
O1175     Cr1182   1.995       .  S
O1176     Cr1182   1.982       .  S
O1176      C1177   1.270       .  A
C1177      O1178   1.271       .  A
C1177      C1189   1.455       .  S
O1178     Cr1183   1.991       .  S
O1179     Cr1183   1.966       .  S
O1179      C1180   1.239       .  A
C1180      C1219   1.486       .  S
Cr1181     O1184   1.770       .  S
Cr1182     O1184   1.768       .  S
Cr1183     O1184   1.772       .  S
C1185      C1186   1.424       .  A
C1185      C1190   1.398       .  A
C1185     Br1192   1.933       .  S
C1186      C1187   1.419       .  A
C1187      C1188   1.409       .  A
C1187     Br1194   1.924       .  S
C1188      C1189   1.402       .  A
C1188     Br1193   1.927       .  S
C1189      C1190   1.397       .  A
C1190     Br1191   1.934       .  S
C1195      C1196   1.417       .  A
C1195      C1200   1.428       .  A
C1195     Br1202   1.937       .  S
C1196      C1197   1.419       .  A
C1197      C1198   1.429       .  A
C1197     Br1204   1.934       .  S
C1198      C1199   1.429       .  A
C1198     Br1203   1.933       .  S
C1199      C1200   1.437       .  A
C1200     Br1201   1.942       .  S
C1205      C1206   1.400       .  A
C1205      C1210   1.405       .  A
C1205     Br1212   1.936       .  S
C1206      C1207   1.414       .  A
C1207      C1208   1.410       .  A
C1207     Br1214   1.933       .  S
C1208      C1209   1.409       .  A
C1208     Br1213   1.930       .  S
C1209      C1210   1.424       .  A
C1210     Br1211   1.923       .  S
C1215      C1216   1.426       .  A
C1215      C1220   1.406       .  A
C1215     Br1222   1.937       .  S
C1216      C1217   1.403       .  A
C1217     Br1224   1.931       .  S
C1218      C1219   1.424       .  A
C1218     Br1223   1.930       .  S
C1220     Br1221   1.936       .  S
C1225      C1230   1.425       .  A
C1225     Br1232   1.938       .  S
C1226      C1227   1.423       .  A
C1227      C1228   1.425       .  A
C1227     Br1234   1.933       .  S
C1228     Br1233   1.939       .  S
C1229      C1230   1.433       .  A
C1230     Br1231   1.942       .  S
C1235      C1236   1.420       .  A
C1235      C1240   1.408       .  A
C1235     Br1242   1.936       .  S
C1236      C1237   1.414       .  A
C1237      C1238   1.411       .  A
C1237     Br1244   1.919       .  S
C1238      C1239   1.413       .  A
C1238     Br1243   1.930       .  S
C1239      C1240   1.405       .  A
C1240     Br1241   1.920       .  S
C1245     Br1252   1.936       .  S
C1246      C1247   1.410       .  A
C1247      C1248   1.408       .  A
C1247     Br1254   1.939       .  S
C1248      C1249   1.429       .  A
C1248     Br1253   1.942       .  S
C1249      C1250   1.402       .  A
C1250     Br1251   1.930       .  S
C1255      C1256   1.410       .  A
C1255      C1260   1.395       .  A
C1255     Br1262   1.933       .  S
C1256      C1257   1.399       .  A
C1257      C1258   1.396       .  A
C1257     Br1264   1.931       .  S
C1258      C1259   1.416       .  A
C1258     Br1263   1.932       .  S
C1259      C1260   1.402       .  A
C1260     Br1261   1.927       .  S
C1265      C1266   1.407       .  A
C1265      C1270   1.409       .  A
C1265     Br1272   1.933       .  S
C1266      C1267   1.406       .  A
C1267      C1268   1.411       .  A
C1267     Br1274   1.934       .  S
C1268      C1269   1.424       .  A
C1268     Br1273   1.936       .  S
C1269      C1270   1.420       .  A
C1270     Br1271   1.933       .  S
C1275      C1276   1.409       .  A
C1275      C1280   1.413       .  A
C1275     Br1282   1.932       .  S
C1276      C1277   1.414       .  A
C1277      C1278   1.422       .  A
C1277     Br1284   1.928       .  S
C1278      C1279   1.416       .  A
C1278     Br1283   1.928       .  S
C1279      C1280   1.425       .  A
C1280     Br1281   1.940       .  S
C1285      C1286   1.409       .  A
C1285      C1290   1.391       .  A
C1285     Br1292   1.925       .  S
C1286      C1287   1.414   1_556  A
C1287      C1288   1.397       .  A
C1287     Br1294   1.935       .  S
C1288      C1289   1.401       .  A
C1288     Br1293   1.921       .  S
C1289      C1290   1.399   1_554  A
C1290     Br1291   1.931       .  S
C1295      C1296   1.408       .  A
C1295      C1300   1.406       .  A
C1295     Br1302   1.920       .  S
C1296      C1297   1.412       .  A
C1297      C1298   1.401       .  A
C1297     Br1304   1.925       .  S
C1298      C1299   1.407       .  A
C1298     Br1303   1.937       .  S
C1299      C1300   1.408       .  A
C1300     Br1301   1.930       .  S
C1305      C1310   1.428       .  A
C1305     Br1312   1.934       .  S
C1306      C1307   1.422       .  A
C1307      C1308   1.421       .  A
C1307     Br1314   1.929       .  S
C1308     Br1313   1.939       .  S
C1309      C1310   1.429       .  A
C1310     Br1311   1.937       .  S
C1315     Br1322   1.927       .  S
C1316      C1317   1.413   1_545  A
C1317      C1318   1.408       .  A
C1317     Br1324   1.933   1_564  S
C1318      C1319   1.409       .  A
C1318     Br1323   1.930       .  S
C1319      C1320   1.412       .  A
C1320     Br1321   1.926       .  S
C1325      C1326   1.429   1_554  A
C1325      C1330   1.404       .  A
C1325     Br1332   1.937       .  S
C1326      C1327   1.404       .  A
C1327      C1328   1.413       .  A
C1327     Br1334   1.930       .  S
C1328      C1329   1.423   1_556  A
C1328     Br1333   1.927       .  S
C1329      C1330   1.402       .  A
C1330     Br1331   1.939       .  S
C1335      C1336   1.425       .  A
C1335      C1340   1.408       .  A
C1335     Br1342   1.942       .  S
C1336      C1337   1.415       .  A
C1337      C1338   1.413       .  A
C1337     Br1344   1.930       .  S
C1338      C1339   1.413       .  A
C1338     Br1343   1.931       .  S
C1339      C1340   1.410       .  A
C1340     Br1341   1.937       .  S
C1345      C1346   1.422       .  A
C1345      C1350   1.424       .  A
C1345     Br1352   1.919       .  S
C1346      C1347   1.420       .  A
C1347      C1348   1.428       .  A
C1347     Br1354   1.929       .  S
C1348      C1349   1.424       .  A
C1348     Br1353   1.932       .  S
C1349      C1350   1.420       .  A
C1350     Br1351   1.935       .  S
C1355      C1356   1.416       .  A
C1355      C1360   1.416       .  A
C1355     Br1362   1.927       .  S
C1356      C1357   1.429       .  A
C1357     Br1364   1.928       .  S
C1358      C1359   1.414   1_544  A
C1358     Br1363   1.935   1_554  S
C1360     Br1361   1.936       .  S
C1365      C1366   1.411   1_556  A
C1365      C1370   1.412       .  A
C1365     Br1372   1.935   1_556  S
C1366      C1367   1.408   1_554  A
C1367      C1368   1.411       .  A
C1367     Br1374   1.927   1_556  S
C1368      C1369   1.412       .  A
C1368     Br1373   1.924       .  S
C1369      C1370   1.420       .  A
C1370     Br1371   1.934       .  S
C1375      C1376   1.414       .  A
C1375      C1380   1.391       .  A
C1375     Br1382   1.930       .  S
C1376      C1377   1.401   1_554  A
C1377      C1378   1.391       .  A
C1377     Br1384   1.933       .  S
C1378      C1379   1.412       .  A
C1378     Br1383   1.936       .  S
C1379      C1380   1.398   1_556  A
C1380     Br1381   1.934       .  S
C1385      C1386   1.420       .  A
C1385      C1390   1.420   1_655  A
C1385     Br1392   1.933       .  S
C1386      C1387   1.427       .  A
C1387      C1388   1.417   1_655  A
C1387     Br1394   1.943       .  S
C1388      C1389   1.415       .  A
C1388     Br1393   1.927       .  S
C1389      C1390   1.417       .  A
C1390     Br1391   1.932       .  S
C1395      C1396   1.405       .  A
C1395      C1400   1.412       .  A
C1395     Br1402   1.928       .  S
C1396      C1397   1.420       .  A
C1397      C1398   1.415       .  A
C1397     Br1404   1.928       .  S
C1398      C1399   1.409       .  A
C1398     Br1403   1.928       .  S
C1399      C1400   1.420       .  A
C1400     Br1401   1.923       .  S
C1405      C1406   1.406       .  A
C1405      C1410   1.395       .  A
C1405     Br1412   1.912       .  S
C1406      C1407   1.403       .  A
C1407      C1408   1.402       .  A
C1407     Br1414   1.934       .  S
C1408      C1409   1.418       .  A
C1408     Br1413   1.931       .  S
C1409      C1410   1.414       .  A
C1410     Br1411   1.946       .  S
C1415      C1416   1.407       .  A
C1415      C1420   1.417       .  A
C1415     Br1422   1.924       .  S
C1416      C1417   1.421       .  A
C1417      C1418   1.419       .  A
C1417     Br1424   1.922       .  S
C1418      C1419   1.404       .  A
C1418     Br1423   1.927       .  S
C1419      C1420   1.417       .  A
C1420     Br1421   1.923       .  S
C1425      C1426   1.425       .  A
C1425     Br1432   1.938       .  S
C1427      C1428   1.425       .  A
C1427     Br1434   1.933       .  S
C1428      C1429   1.428       .  A
C1428     Br1433   1.937       .  S
C1429      C1430   1.424   1_565  A
C1435      C1436   1.404       .  A
C1435      C1440   1.413       .  A
C1435     Br1442   1.931       .  S
C1436      C1437   1.421       .  A
C1437      C1438   1.410       .  A
C1438      C1439   1.403       .  A
C1438     Br1443   1.934       .  S
C1439      C1440   1.425       .  A
C1440     Br1441   1.926       .  S
C1445      C1446   1.418       .  A
C1445      C1450   1.409       .  A
C1445     Br1452   1.937       .  S
C1446      C1447   1.436       .  A
C1447      C1448   1.411       .  A
C1447     Br1454   1.929       .  S
C1448      C1449   1.398       .  A
C1448     Br1453   1.935       .  S
C1449      C1450   1.403       .  A
C1450     Br1451   1.902       .  S
C1455      C1456   1.416       .  A
C1455      C1460   1.419   1_655  A
C1455     Br1462   1.931       .  S
C1456      C1457   1.419       .  A
C1457      C1458   1.412   1_655  A
C1457     Br1464   1.936       .  S
C1458      C1459   1.415       .  A
C1458     Br1463   1.935       .  S
C1459      C1460   1.421       .  A
C1460     Br1461   1.933       .  S
C1465      C1466   1.422       .  A
C1465      C1470   1.425       .  A
C1465     Br1472   1.932       .  S
C1466      C1467   1.419       .  A
C1467      C1468   1.422       .  A
C1467     Br1474   1.937       .  S
C1468      C1469   1.426       .  A
C1468     Br1473   1.933       .  S
C1469      C1470   1.424       .  A
C1470     Br1471   1.936       .  S
C1475      C1480   1.412       .  A
C1475     Br1482   1.929       .  S
C1476      C1477   1.413       .  A
C1477     Br1484   1.932       .  S
C1478      C1479   1.409       .  A
C1478     Br1483   1.929       .  S
C1479      C1480   1.410       .  A
C1480     Br1481   1.925       .  S
C1485      C1486   1.413       .  A
C1485      C1490   1.415       .  A
C1485     Br1492   1.926       .  S
C1486      C1487   1.414       .  A
C1487      C1488   1.414       .  A
C1487     Br1494   1.930       .  S
C1488      C1489   1.413       .  A
C1488     Br1493   1.929       .  S
C1489      C1490   1.414       .  A
C1490     Br1491   1.929       .  S
C1495      C1496   1.409       .  A
C1495      C1500   1.402       .  A
C1495     Br1502   1.916       .  S
C1496      C1497   1.397       .  A
C1497      C1498   1.392       .  A
C1497     Br1504   1.935       .  S
C1498      C1499   1.415       .  A
C1498     Br1503   1.919       .  S
C1499      C1500   1.409       .  A
C1500     Br1501   1.933       .  S
C1505      C1506   1.406       .  A
C1505      C1510   1.413       .  A
C1505     Br1512   1.938       .  S
C1506      C1507   1.406       .  A
C1507      C1508   1.419       .  A
C1507     Br1514   1.929       .  S
C1508      C1509   1.430       .  A
C1508     Br1513   1.935       .  S
C1509      C1510   1.433       .  A
C1510     Br1511   1.942       .  S
C1515      C1516   1.407       .  A
C1515      C1520   1.411       .  A
C1515     Br1522   1.936       .  S
C1516      C1517   1.410       .  A
C1517      C1518   1.405       .  A
C1517     Br1524   1.935       .  S
C1518      C1519   1.419       .  A
C1518     Br1523   1.938       .  S
C1519      C1520   1.427       .  A
C1520     Br1521   1.936       .  S
C1525      C1526   1.413       .  A
C1525      C1530   1.410   1_655  A
C1525     Br1532   1.937       .  S
C1526      C1527   1.419       .  A
C1527      C1528   1.417   1_655  A
C1527     Br1534   1.930       .  S
C1528      C1529   1.416       .  A
C1528     Br1533   1.935       .  S
C1529      C1530   1.427       .  A
C1530     Br1531   1.945       .  S
C1535      C1536   1.418       .  A
C1535      C1540   1.414       .  A
C1535     Br1542   1.930       .  S
C1536      C1537   1.418       .  A
C1537      C1538   1.404       .  A
C1537     Br1544   1.940       .  S
C1538      C1539   1.408       .  A
C1538     Br1543   1.930       .  S
C1539      C1540   1.410       .  A
C1540     Br1541   1.932       .  S
C1545      C1546   1.405   1_554  A
C1545      C1550   1.394       .  A
C1545     Br1552   1.938       .  S
C1546      C1547   1.414       .  A
C1547      C1548   1.393       .  A
C1547     Br1554   1.943       .  S
C1548      C1549   1.406   1_556  A
C1548     Br1553   1.929       .  S
C1549      C1550   1.415       .  A
C1550     Br1551   1.935       .  S
C1555      C1556   1.400       .  A
C1555      C1560   1.415       .  A
C1555     Br1562   1.933       .  S
C1556      C1557   1.419       .  A
C1557      C1558   1.414       .  A
C1557     Br1564   1.917       .  S
C1558      C1559   1.405       .  A
C1558     Br1563   1.930       .  S
C1559      C1560   1.429       .  A
C1560     Br1561   1.915       .  S
C1565      C1566   1.409       .  A
C1565      C1570   1.402       .  A
C1565     Br1572   1.934       .  S
C1566      C1567   1.411       .  A
C1567      C1568   1.410       .  A
C1567     Br1574   1.928       .  S
C1568      C1569   1.409       .  A
C1568     Br1573   1.926       .  S
C1569      C1570   1.409       .  A
C1570     Br1571   1.926       .  S
C1575      C1576   1.426       .  A
C1575      C1580   1.423       .  A
C1575     Br1582   1.940       .  S
C1576      C1577   1.429       .  A
C1577      C1578   1.427       .  A
C1577     Br1584   1.934       .  S
C1578      C1579   1.417       .  A
C1578     Br1583   1.932       .  S
C1579      C1580   1.423       .  A
C1580     Br1581   1.931       .  S
C1585      C1590   1.405       .  A
C1585     Br1592   1.934       .  S
C1586      C1587   1.422   1_554  A
C1587     Br1594   1.929       .  S
C1588      C1589   1.404       .  A
C1588     Br1593   1.928       .  S
C1589      C1590   1.421   1_556  A
C1590     Br1591   1.935       .  S
C1595      C1596   1.407   1_554  A
C1595      C1600   1.416       .  A
C1595     Br1602   1.929   1_554  S
C1596      C1597   1.410   1_556  A
C1597      C1598   1.410       .  A
C1597     Br1604   1.937   1_554  S
C1598      C1599   1.417       .  A
C1598     Br1603   1.920       .  S
C1599      C1600   1.421       .  A
C1600     Br1601   1.929       .  S
C1605      C1606   1.422       .  A
C1605      C1610   1.415   1_655  A
C1605     Br1612   1.943       .  S
C1606      C1607   1.429       .  A
C1607      C1608   1.422   1_655  A
C1607     Br1614   1.939       .  S
C1608      C1609   1.419       .  A
C1608     Br1613   1.938       .  S
C1609      C1610   1.423       .  A
C1610     Br1611   1.939       .  S
C1615      C1616   1.423       .  A
C1615      C1620   1.411       .  A
C1615     Br1622   1.938       .  S
C1616      C1617   1.424       .  A
C1617      C1618   1.415       .  A
C1617     Br1624   1.933       .  S
C1618      C1619   1.408       .  A
C1618     Br1623   1.932       .  S
C1619      C1620   1.411       .  A
C1620     Br1621   1.935       .  S
C1625      C1626   1.427       .  A
C1625     Br1632   1.928       .  S
C1627      C1628   1.424       .  A
C1627     Br1634   1.937       .  S
C1628      C1629   1.425       .  A
C1628     Br1633   1.927       .  S
C1629      C1630   1.419   1_565  A
C1635      C1636   1.424       .  A
C1635      C1640   1.417       .  A
C1635     Br1642   1.932       .  S
C1636      C1637   1.421       .  A
C1637      C1638   1.414   1_556  A
C1637     Br1644   1.924       .  S
C1638      C1639   1.409       .  A
C1639      C1640   1.409   1_554  A
C1645      C1646   1.420       .  A
C1645      C1650   1.415       .  A
C1645     Br1652   1.929       .  S
C1646      C1647   1.419       .  A
C1647      C1648   1.414       .  A
C1647     Br1654   1.915       .  S
C1648      C1649   1.411   1_554  A
C1648     Br1653   1.938   1_554  S
C1649      C1650   1.408   1_556  A
C1650     Br1651   1.924   1_554  S
C1655      C1656   1.401   1_554  A
C1655      C1660   1.393       .  A
C1655     Br1662   1.936       .  S
C1656      C1657   1.409       .  A
C1657      C1658   1.390       .  A
C1657     Br1664   1.936       .  S
C1658      C1659   1.404   1_556  A
C1658     Br1663   1.933       .  S
C1659      C1660   1.417       .  A
C1660     Br1661   1.937       .  S
