geometry optimzed in LAMMPS
_audit_creation_date              2020-12-01 
_audit_creation_method            'lammps2cif' 
_symmetry_space_group_name_H-M    'P1' 
_symmetry_Int_Tables_number       1 
_symmetry_cell_setting            triclinic 
loop_ 
_symmetry_equiv_pos_as_xyz 
  x,y,z 
_cell_length_a                    35.82964207 
_cell_length_b                    26.857500290812794 
_cell_length_c                    44.48062876159369 
_cell_angle_alpha                 90.55631298164752 
_cell_angle_beta                  89.91207600423961 
_cell_angle_gamma                 90.11283498683247 
loop_ 
_atom_site_label 
_atom_site_type_symbol 
_atom_site_fract_x 
_atom_site_fract_y 
_atom_site_fract_z 
_atom_site_charge 
O1          O  0.91422768  0.29269472  0.99111672    -0.82900
C2          C  0.85278148  0.10038384  0.00875867     0.96400
O3          O  0.83894292  0.13589798  0.99428858    -0.72100
O4          O  0.83128055  0.21614387  0.02686100    -0.75600
Al5        Al  0.85296306  0.20387646  0.98900075     1.49000
C6          C  0.83787996  0.25474176  0.04220096     0.91700
O7          O  0.91952198  0.21583844  0.06048004    -0.81900
O8          O  0.96738891  0.17874262  0.98411081    -0.75400
Al9        Al  0.91612064  0.25171730  0.02522645     1.90100
O10         O  0.94513988  0.14763795  0.04201654    -0.74500
O11         O  0.90893716  0.13003660  0.95989143    -0.74300
O12         O  0.88640668  0.10193887  0.01723436    -0.80000
O13         O  0.86979624  0.19088419  0.95011646    -0.78200
O14         O  0.89817744  0.19946804  0.00488882    -1.14300
O15         O  0.85650194  0.27411273  0.97945506    -0.73500
C16         C  0.88390912  0.30396534  0.97859039     0.97200
C17         C  0.93712248  0.17598794  0.06425469     0.93600
Al18       Al  0.92498335  0.14406548  0.00106260     1.55600
O19         O  0.86908751  0.27615522  0.04008405    -0.78200
C20         C  0.88836037  0.15358317  0.94161766     0.97700
C21         C  0.98342661  0.21582116  0.99618449     0.92600
O22         O  0.96719641  0.24091580  0.01624082    -0.83500
O23         O  0.85228471  0.28720173  0.76929833    -0.82900
C24         C  0.91899444  0.09773287  0.75055702     0.96400
O25         O  0.92940918  0.13248780  0.76789764    -0.72100
O26         O  0.93996261  0.21416872  0.73789216    -0.75600
Al27       Al  0.91395452  0.20020916  0.77343118     1.49000
C28         C  0.93424542  0.25282526  0.72288415     0.91700
O29         O  0.85513226  0.21433353  0.69729119    -0.81900
O30         O  0.80077377  0.17003318  0.76875606    -0.75400
Al31       Al  0.85457978  0.24796602  0.73396096     1.90100
O32         O  0.82959027  0.14410396  0.71204721    -0.74500
O33         O  0.85701460  0.12234038  0.79544291    -0.74300
O34         O  0.88696260  0.09923515  0.73868877    -0.80000
O35         O  0.89193038  0.18579948  0.81012761    -0.78200
O36         O  0.87113920  0.19518462  0.75379066    -1.14300
O37         O  0.90889471  0.27036516  0.78423901    -0.73500
C38         C  0.88092467  0.29925907  0.78402888     0.97200
C39         C  0.83883144  0.17402582  0.69129061     0.93600
Al40       Al  0.84547433  0.13844242  0.75373165     1.55600
O41         O  0.90274192  0.27378061  0.72326365    -0.78200
C42         C  0.87367615  0.14702381  0.81595712     0.97700
C43         C  0.78535309  0.20739990  0.75705988     0.92600
O44         O  0.80310305  0.23493798  0.73936075    -0.83500
O45         O  0.69963317  0.36104443  0.01821573    -0.82900
C46         C  0.54261707  0.34930809  0.02219736     0.96400
O47         O  0.56476636  0.33328228  0.04172965    -0.72100
O48         O  0.61002990  0.27462592  0.01126093    -0.75600
Al49       Al  0.61792745  0.32640483  0.03954731     1.49000
C50         C  0.63514290  0.26016173  0.99330801     0.91700
O51         O  0.63428536  0.36019191  0.95173324    -0.81900
O52         O  0.63700122  0.47082309  0.00759944    -0.75400
Al53       Al  0.66483434  0.36114415  0.98597764     1.90100
O54         O  0.59527996  0.42049725  0.96328510    -0.74500
O55         O  0.59536997  0.43714221  0.05109294    -0.74300
O56         O  0.55273406  0.38448784  0.00560354    -0.80000
O57         O  0.62631480  0.37350437  0.06941971    -0.78200
O58         O  0.62653920  0.37091928  0.01077330    -1.14300
O59         O  0.66870149  0.30776909  0.04547727    -0.73500
C60         C  0.69883368  0.32929599  0.03894453     0.97200
C61         C  0.60866853  0.38956618  0.94423540     0.93600
Al62       Al  0.59717234  0.42394370  0.00730035     1.55600
O63         O  0.66100365  0.28948580  0.98536135    -0.78200
C64         C  0.61452741  0.41729017  0.07196405     0.97700
C65         C  0.66684677  0.46976716  0.99270212     0.92600
O66         O  0.67749241  0.42975918  0.98044806    -0.83500
O67         O  0.57490399  0.35956220  0.24889292    -0.82900
C68         C  0.73055517  0.33993344  0.23644261     0.96400
O69         O  0.70676130  0.32432750  0.21770344    -0.72100
O70         O  0.66093648  0.26779939  0.24855500    -0.75600
Al71       Al  0.65323244  0.32074253  0.22144715     1.49000
C72         C  0.63673607  0.25445013  0.26748276     0.91700
O73         O  0.64694761  0.35504931  0.31002508    -0.81900
O74         O  0.63886887  0.46462117  0.25305061    -0.75400
Al75       Al  0.61270829  0.35756545  0.27828772     1.90100
O76         O  0.68274046  0.41769191  0.29683206    -0.74500
O77         O  0.67984144  0.42932067  0.20912072    -0.74300
O78         O  0.72264748  0.37645938  0.25336205    -0.80000
O79         O  0.64467960  0.36840061  0.19206034    -0.78200
O80         O  0.64848039  0.36554183  0.25096654    -1.14300
O81         O  0.60112184  0.30655889  0.21781772    -0.73500
C82         C  0.57267239  0.33020775  0.22674237     0.97200
C83         C  0.67166516  0.38673696  0.31646155     0.93600
Al84       Al  0.67892972  0.41787433  0.25288904     1.55600
O85         O  0.61360796  0.28565243  0.27792679    -0.78200
C86         C  0.65853190  0.41097371  0.18896209     0.97700
C87         C  0.61045349  0.46485120  0.26981576     0.92600
O88         O  0.60272390  0.42701011  0.28520715    -0.83500
O89         O  0.35035046  0.28461301  0.25854260    -0.82900
C90         C  0.41751901  0.09581586  0.24149297     0.96400
O91         O  0.42908491  0.13195953  0.25726902    -0.72100
O92         O  0.43850091  0.21293199  0.22663014    -0.75600
Al93       Al  0.41362151  0.19949894  0.26288339     1.49000
C94         C  0.43274931  0.25251431  0.21261806     0.91700
O95         O  0.35476592  0.20916122  0.18801886    -0.81900
O96         O  0.30050766  0.17090134  0.26186589    -0.75400
Al97       Al  0.35328240  0.24476692  0.22375005     1.90100
O98         O  0.32644501  0.14163823  0.20422226    -0.74500
O99         O  0.35840529  0.12148830  0.28743160    -0.74300
O100        O  0.38496378  0.09656376  0.23041527    -0.80000
O101        O  0.39333732  0.18568056  0.30024302    -0.78200
O102        O  0.37035424  0.19329072  0.24432213    -1.14300
O103        O  0.40744960  0.26975163  0.27352040    -0.73500
C104        C  0.37860608  0.29724611  0.27360997     0.97200
C105        C  0.33644369  0.17002549  0.18281531     0.93600
Al106      Al  0.34433929  0.13703082  0.24588783     1.55600
O107        O  0.40089649  0.27237015  0.21297051    -0.78200
C108        C  0.37717278  0.14575053  0.30696967     0.97700
C109        C  0.28462115  0.20668801  0.24865823     0.92600
O110        O  0.30181726  0.23089341  0.22893278    -0.83500
O111        O  0.42032024  0.27526873  0.47785210    -0.82900
C112        C  0.36089640  0.08292565  0.49920281     0.96400
O113        O  0.34664650  0.11746420  0.48425172    -0.72100
O114        O  0.33678279  0.19985482  0.51397005    -0.75600
Al115      Al  0.36000105  0.18487889  0.47710973     1.49000
C116        C  0.34160977  0.24080906  0.52731354     0.91700
O117        O  0.42150945  0.20528223  0.55028659    -0.81900
O118        O  0.47651148  0.16495648  0.47761194    -0.75400
Al119      Al  0.42033795  0.23810057  0.51368185     1.90100
O120        O  0.44898039  0.13613915  0.53485828    -0.74500
O121        O  0.42086442  0.11345638  0.45062238    -0.74300
O122        O  0.39450761  0.08562054  0.50755377    -0.80000
O123        O  0.37804006  0.16910147  0.43931882    -0.78200
O124        O  0.40468010  0.18352731  0.49422847    -1.14300
O125        O  0.36326005  0.25383923  0.46519658    -0.73500
C126        C  0.39045269  0.28412354  0.46391290     0.97200
C127        C  0.43841205  0.16538508  0.55603416     0.93600
Al128      Al  0.43307239  0.12938389  0.49268736     1.55600
O129        O  0.37237054  0.26308797  0.52520830    -0.78200
C130        C  0.39946465  0.13430471  0.43167755     0.97700
C131        C  0.49083706  0.20262591  0.49040554     0.92600
O132        O  0.47184524  0.22850934  0.50826307    -0.83500
O133        O  0.07897158  0.35859460  0.74884170    -0.82900
C134        C  0.23431134  0.33647792  0.73343549     0.96400
O135        O  0.20918137  0.31676873  0.71739648    -0.72100
O136        O  0.16376549  0.26463801  0.75096728    -0.75600
Al137      Al  0.15597341  0.31436459  0.72174911     1.49000
C138        C  0.13933967  0.25367782  0.77022041     0.91700
O139        O  0.15325736  0.35688787  0.80819745    -0.81900
O140        O  0.14241433  0.46141721  0.74746965    -0.75400
Al141      Al  0.11755030  0.35783339  0.77754542     1.90100
O142        O  0.18749063  0.41960233  0.79225191    -0.74500
O143        O  0.18271411  0.42119231  0.70449655    -0.74300
O144        O  0.22685649  0.37450759  0.74923460    -0.80000
O145        O  0.14762217  0.35809712  0.69042872    -0.78200
O146        O  0.15238826  0.36249294  0.74923553    -1.14300
O147        O  0.10342016  0.30146399  0.71938402    -0.73500
C148        C  0.07567582  0.32718685  0.72779640     0.97200
C149        C  0.17714974  0.39044786  0.81312609     0.93600
Al150      Al  0.18275088  0.41497322  0.74840964     1.55600
O151        O  0.11667459  0.28626855  0.77952779    -0.78200
C152        C  0.16175851  0.39986185  0.68525953     0.97700
C153        C  0.11554470  0.46383136  0.76576321     0.92600
O154        O  0.10897677  0.42776601  0.78287400    -0.83500
O155        O  0.19712674  0.34645747  0.50268024    -0.82900
C156        C  0.04211973  0.33125866  0.52191347     0.96400
O157        O  0.06752978  0.31449293  0.53839242    -0.72100
O158        O  0.10819088  0.25882660  0.50204008    -0.75600
Al159      Al  0.11973237  0.30846051  0.53091175     1.49000
C160        C  0.13159442  0.24586156  0.48219625     0.91700
O161        O  0.12149847  0.35003265  0.44362194    -0.81900
O162        O  0.13301468  0.45420956  0.50421815    -0.75400
Al163      Al  0.15743796  0.34866596  0.47436700     1.90100
O164        O  0.08684674  0.41128686  0.46127657    -0.74500
O165        O  0.09553585  0.41514654  0.54850989    -0.74300
O166        O  0.04919371  0.36694060  0.50455607    -0.80000
O167        O  0.13235397  0.35343356  0.56114034    -0.78200
O168        O  0.12333151  0.35521364  0.50310536    -1.14300
O169        O  0.17074005  0.29069181  0.53114322    -0.73500
C170        C  0.19944013  0.31342757  0.52259521     0.97200
C171        C  0.09752534  0.38354799  0.43964367     0.93600
Al172      Al  0.09320224  0.40768480  0.50455817     1.55600
O173        O  0.15462163  0.27707049  0.47181772    -0.78200
C174        C  0.11869703  0.39554390  0.56655664     0.97700
C175        C  0.16055456  0.45571815  0.48668146     0.92600
O176        O  0.16827817  0.41836815  0.47037277    -0.83500
O177        O  0.57684513  0.84982274  0.75260384    -0.82900
C178        C  0.73313953  0.82972259  0.73678939     0.96400
O179        O  0.70761922  0.80105803  0.72836327    -0.72100
O180        O  0.66320977  0.75988666  0.76603643    -0.75600
Al181      Al  0.65552078  0.79967011  0.73211788     1.49000
C182        C  0.63635823  0.74995787  0.78308389     0.91700
O183        O  0.64987493  0.86045734  0.81272547    -0.81900
O184        O  0.63863310  0.95352760  0.74796720    -0.75400
Al185      Al  0.61437034  0.85487421  0.78233465     1.90100
O186        O  0.68787007  0.91600453  0.79188406    -0.74500
O187        O  0.67087938  0.90744512  0.70404556    -0.74300
O188        O  0.72530113  0.87224946  0.74710783    -0.80000
O189        O  0.64850120  0.83260810  0.69697578    -0.78200
O190        O  0.65006692  0.85459167  0.75418302    -1.14300
O191        O  0.60301610  0.78606293  0.72959147    -0.73500
C192        C  0.57521300  0.81447229  0.73369070     0.97200
C193        C  0.67647086  0.89137692  0.81472285     0.93600
Al194      Al  0.67865297  0.90791521  0.74829342     1.55600
O195        O  0.61268941  0.78334137  0.78918816    -0.78200
C196        C  0.65376436  0.87557894  0.68756564     0.97700
C197        C  0.61158695  0.95876803  0.76550146     0.92600
O198        O  0.60452655  0.92516663  0.78410322    -0.83500
O199        O  0.69313678  0.85408059  0.50839065    -0.82900
C200        C  0.53780089  0.83082144  0.51705135     0.96400
O201        O  0.56148791  0.81530462  0.53566551    -0.72100
O202        O  0.60699320  0.76128022  0.50265162    -0.75600
Al203      Al  0.61469156  0.81161402  0.53202833     1.49000
C204        C  0.63225895  0.74929675  0.48423421     0.91700
O205        O  0.62232551  0.85225920  0.44589030    -0.81900
O206        O  0.62885874  0.95636027  0.50901517    -0.75400
Al207      Al  0.65608064  0.85333113  0.47802543     1.90100
O208        O  0.58757669  0.91517185  0.46097907    -0.74500
O209        O  0.58356028  0.91500665  0.54905106    -0.74300
O210        O  0.54562839  0.86746586  0.50053201    -0.80000
O211        O  0.62296862  0.85718638  0.56279828    -0.78200
O212        O  0.61958472  0.85835251  0.50479186    -1.14300
O213        O  0.66650781  0.79686198  0.53566817    -0.73500
C214        C  0.69488879  0.82223292  0.52902098     0.97200
C215        C  0.59868335  0.88559477  0.44030095     0.93600
Al216      Al  0.58864146  0.90991910  0.50479976     1.55600
O217        O  0.65608610  0.78114353  0.47573701    -0.78200
C218        C  0.60328028  0.89441557  0.56916958     0.97700
C219        C  0.65762881  0.95848769  0.49261489     0.92600
O220        O  0.66491293  0.92381470  0.47416205    -0.83500
O221        O  0.42426944  0.79291396  0.98509705    -0.82900
C222        C  0.35317952  0.60642890  0.00632351     0.96400
O223        O  0.34249233  0.64141306  0.98972812    -0.72100
O224        O  0.33534621  0.72621813  0.01833985    -0.75600
Al225      Al  0.35977965  0.70771874  0.98260720     1.49000
C226        C  0.34264674  0.76547207  0.03288449     0.91700
O227        O  0.42033082  0.72274867  0.05762534    -0.81900
O228        O  0.47205321  0.67492195  0.98480253    -0.75400
Al229      Al  0.42151280  0.75516616  0.02079686     1.90100
O230        O  0.44487373  0.65189219  0.04263470    -0.74500
O231        O  0.41421474  0.62609872  0.96038249    -0.74300
O232        O  0.38576034  0.60710393  0.01735080    -0.80000
O233        O  0.37959793  0.68896037  0.94553559    -0.78200
O234        O  0.40299317  0.70209932  0.00142662    -1.14300
O235        O  0.36728327  0.77608565  0.97059342    -0.73500
C236        C  0.39547269  0.80460792  0.97049352     0.97200
C237        C  0.43563281  0.68188010  0.06363801     0.93600
Al238      Al  0.42751766  0.64461963  0.00133136     1.55600
O239        O  0.37475052  0.78445107  0.03187993    -0.78200
C240        C  0.39679124  0.64914670  0.94000976     0.97700
C241        C  0.48842310  0.71259259  0.99588987     0.92600
O242        O  0.47243609  0.73956785  0.01513969    -0.83500
O243        O  0.35132059  0.78350785  0.76266838    -0.82900
C244        C  0.41726179  0.59195582  0.75231054     0.96400
O245        O  0.42791868  0.62817613  0.76853627    -0.72100
O246        O  0.43917446  0.70641492  0.73588611    -0.75600
Al247      Al  0.41264617  0.69685542  0.77146674     1.49000
C248        C  0.43452201  0.74373723  0.71952323     0.91700
O249        O  0.35550771  0.70089081  0.69472670    -0.81900
O250        O  0.30075268  0.66840972  0.76934360    -0.75400
Al251      Al  0.35424862  0.73967543  0.72943860     1.90100
O252        O  0.32680204  0.63506645  0.71274120    -0.74500
O253        O  0.35767506  0.62037108  0.79659687    -0.74300
O254        O  0.38530109  0.59278729  0.74017427    -0.80000
O255        O  0.38976986  0.68752328  0.80829951    -0.78200
O256        O  0.37034378  0.68972257  0.75183222    -1.14300
O257        O  0.40742477  0.76784158  0.77926082    -0.73500
C258        C  0.37959427  0.79680479  0.77744073     0.97200
C259        C  0.33738396  0.66127765  0.69056048     0.93600
Al260      Al  0.34433496  0.63353466  0.75450947     1.55600
O261        O  0.40299363  0.76461540  0.71807845    -0.78200
C262        C  0.37475293  0.64727700  0.81586310     0.97700
C263        C  0.28535756  0.70417330  0.75579158     0.92600
O264        O  0.30244774  0.72697928  0.73529390    -0.83500
O265        O  0.20006988  0.86504274  0.00808021    -0.82900
C266        C  0.04422163  0.84959272  0.02268557     0.96400
O267        O  0.06859557  0.83302330  0.04025332    -0.72100
O268        O  0.11270463  0.77504993  0.00907521    -0.75600
Al269      Al  0.12150277  0.82853206  0.03612481     1.49000
C270        C  0.13640507  0.76045839  0.98998232     0.91700
O271        O  0.12624632  0.85789001  0.94784437    -0.81900
O272        O  0.13828787  0.97186789  0.00267300    -0.75400
Al273      Al  0.16158875  0.86179989  0.97892400     1.90100
O274        O  0.09192765  0.92220165  0.96120791    -0.74500
O275        O  0.09781620  0.93900834  0.04820853    -0.74300
O276        O  0.05230110  0.88538431  0.00560824    -0.80000
O277        O  0.13063746  0.87655673  0.06555526    -0.78200
O278        O  0.12657897  0.87222786  0.00659841    -1.14300
O279        O  0.17316705  0.81381792  0.03940303    -0.73500
C280        C  0.20189996  0.83613217  0.03024550     0.97200
C281        C  0.10209629  0.89028749  0.94156993     0.93600
Al282      Al  0.09714206  0.92538809  0.00471772     1.55600
O283        O  0.16029292  0.79041256  0.97980356    -0.78200
C284        C  0.11750004  0.91950587  0.06874212     0.97700
C285        C  0.16545817  0.96979302  0.98451176     0.92600
O286        O  0.17205867  0.92973820  0.97071192    -0.83500
O287        O  0.08082698  0.85894126  0.24313759    -0.82900
C288        C  0.23679475  0.84762471  0.23124824     0.96400
O289        O  0.21307564  0.83181242  0.21267584    -0.72100
O290        O  0.17009414  0.77170629  0.24466709    -0.75600
Al291      Al  0.16042433  0.82432448  0.21722134     1.49000
C292        C  0.14635059  0.75789625  0.26397560     0.91700
O293        O  0.15137761  0.85960188  0.30586158    -0.81900
O294        O  0.14350448  0.96863178  0.24934203    -0.75400
Al295      Al  0.11814579  0.85978419  0.27330047     1.90100
O296        O  0.18753786  0.92195910  0.29282053    -0.74500
O297        O  0.18443579  0.93386980  0.20521015    -0.74300
O298        O  0.22818902  0.88232770  0.24926894    -0.80000
O299        O  0.15007322  0.87174458  0.18826509    -0.78200
O300        O  0.15431207  0.86907671  0.24666513    -1.14300
O301        O  0.10934897  0.80572885  0.21369093    -0.73500
C302        C  0.07981192  0.82658990  0.22244554     0.97200
C303        C  0.17560829  0.89183013  0.31255276     0.93600
Al304      Al  0.18390171  0.92240077  0.24893464     1.55600
O305        O  0.12180453  0.78805153  0.27355754    -0.78200
C306        C  0.16316268  0.91484394  0.18521966     0.97700
C307        C  0.11424464  0.96767139  0.26503684     0.92600
O308        O  0.10595658  0.92873934  0.27928821    -0.83500
O309        O  0.85736585  0.78678651  0.27112614    -0.82900
C310        C  0.91661008  0.59444179  0.25001645     0.96400
O311        O  0.92915433  0.62845587  0.26686728    -0.72100
O312        O  0.94147126  0.70985159  0.23676862    -0.75600
Al313      Al  0.91631307  0.69688591  0.27286415     1.49000
C314        C  0.93716261  0.74991377  0.22274810     0.91700
O315        O  0.85559908  0.71635558  0.19842508    -0.81900
O316        O  0.80166049  0.67372479  0.27040161    -0.75400
Al317      Al  0.85731241  0.74890887  0.23530194     1.90100
O318        O  0.82786879  0.64734424  0.21285008    -0.74500
O319        O  0.85754724  0.62254979  0.29628066    -0.74300
O320        O  0.88437212  0.59810585  0.23874604    -0.80000
O321        O  0.89537089  0.68350549  0.31002056    -0.78200
O322        O  0.87262028  0.69473825  0.25429079    -1.14300
O323        O  0.91412544  0.76683654  0.28405482    -0.73500
C324        C  0.88718969  0.79723416  0.28475947     0.97200
C325        C  0.83696721  0.67794605  0.19230069     0.93600
Al326      Al  0.84491916  0.63976578  0.25455284     1.55600
O327        O  0.90621350  0.77227791  0.22375574    -0.78200
C328        C  0.87668521  0.64534232  0.31629516     0.97700
C329        C  0.78710983  0.71208644  0.25913782     0.92600
O330        O  0.80540366  0.73909157  0.24149612    -0.83500
O331        O  0.91589305  0.78587596  0.48919918    -0.82900
C332        C  0.85181869  0.59611871  0.51067673     0.96400
O333        O  0.83705924  0.63243183  0.49758655    -0.72100
O334        O  0.83083027  0.71587025  0.52632944    -0.75600
Al335      Al  0.85218806  0.69896234  0.48907601     1.49000
C336        C  0.83684107  0.75686227  0.53915802     0.91700
O337        O  0.91555255  0.71421192  0.56073416    -0.81900
O338        O  0.96802818  0.67487107  0.48621079    -0.75400
Al339      Al  0.91516162  0.74843023  0.52464385     1.90100
O340        O  0.94205110  0.64523908  0.54355506    -0.74500
O341        O  0.91075624  0.62537910  0.46046072    -0.74300
O342        O  0.88612982  0.59678590  0.51706985    -0.80000
O343        O  0.86754246  0.68100953  0.45069299    -0.78200
O344        O  0.89741215  0.69517459  0.50489425    -1.14300
O345        O  0.85817137  0.76764365  0.47623601    -0.73500
C346        C  0.88679614  0.79562235  0.47442931     0.97200
C347        C  0.93207093  0.67353153  0.56533590     0.93600
Al348      Al  0.92468322  0.64010952  0.50197925     1.55600
O349        O  0.86826684  0.77728793  0.53668522    -0.78200
C350        C  0.88808660  0.64568494  0.44238172     0.97700
C351        C  0.98418765  0.71035923  0.49981428     0.92600
O352        O  0.96662790  0.73578168  0.51889470    -0.83500
O353        O  0.85378934  0.00812277  0.49078172    -0.82900
C354        C  0.91903153  0.19754536  0.50579157     0.96400
O355        O  0.93215603  0.16170079  0.49065631    -0.72100
O356        O  0.94357339  0.07940006  0.51886446    -0.75600
Al357      Al  0.91678762  0.09464915  0.48364229     1.49000
C358        C  0.93846579  0.04001472  0.53323902     0.91700
O359        O  0.86344373  0.08565620  0.56038482    -0.81900
O360        O  0.80131474  0.11712034  0.48873890    -0.75400
Al361      Al  0.85912123  0.04834603  0.52511870     1.90100
O362        O  0.83135241  0.15034828  0.54461418    -0.74500
O363        O  0.85683540  0.16909797  0.45950999    -0.74300
O364        O  0.88566306  0.19703035  0.51502013    -0.80000
O365        O  0.89647514  0.11034652  0.44662722    -0.78200
O366        O  0.87391956  0.09959287  0.50318885    -1.14300
O367        O  0.90915617  0.02532555  0.47202909    -0.73500
C368        C  0.88044884  0.99740528  0.47335963     0.97200
C369        C  0.84392433  0.12359185  0.56595750     0.93600
Al370      Al  0.84584740  0.15411883  0.50189752     1.55600
O371        O  0.90676075  0.02024093  0.53369036    -0.78200
C372        C  0.87740785  0.14772893  0.43992224     0.97700
C373        C  0.78752522  0.08218392  0.50431440     0.92600
O374        O  0.80769297  0.06087669  0.52327100    -0.83500
O375        O  0.92309055  0.01494964  0.26549199    -0.82900
C376        C  0.85453517  0.20332277  0.25020860     0.96400
O377        O  0.84464045  0.16873369  0.26751280    -0.72100
O378        O  0.83365944  0.08663700  0.23718479    -0.75600
Al379      Al  0.86069319  0.10128030  0.27227658     1.49000
C380        C  0.83882342  0.04721289  0.22233533     0.91700
O381        O  0.91674387  0.08913514  0.19477265    -0.81900
O382        O  0.97291491  0.13117960  0.26709601    -0.75400
Al383      Al  0.91912205  0.05460322  0.23083633     1.90100
O384        O  0.94465873  0.15763112  0.21029778    -0.74500
O385        O  0.91653479  0.18050141  0.29470954    -0.74300
O386        O  0.88653624  0.20232920  0.23803368    -0.80000
O387        O  0.88336143  0.11577472  0.30881150    -0.78200
O388        O  0.90284595  0.10684000  0.25194125    -1.14300
O389        O  0.86710339  0.03184157  0.28225847    -0.73500
C390        C  0.89508163  0.00317162  0.28109791     0.97200
C391        C  0.93486024  0.12805099  0.18908659     0.93600
Al392      Al  0.92839290  0.16355699  0.25246723     1.55600
O393        O  0.87072285  0.02738710  0.22120822    -0.78200
C394        C  0.89996473  0.15574198  0.31507265     0.97700
C395        C  0.98830572  0.09403922  0.25449014     0.92600
O396        O  0.97097875  0.06856491  0.23513052    -0.83500
O397        O  0.19631493  0.94473635  0.75124164    -0.82900
C398        C  0.04077524  0.95797159  0.73528476     0.96400
O399        O  0.06489699  0.97417869  0.71722289    -0.72100
O400        O  0.10632870  0.03028935  0.75309258    -0.75600
Al401      Al  0.11773383  0.98103151  0.72382069     1.49000
C402        C  0.12967841  0.04352270  0.77287665     0.91700
O403        O  0.12168829  0.93856127  0.81082857    -0.81900
O404        O  0.13347107  0.83504233  0.74986531    -0.75400
Al405      Al  0.15704472  0.94108912  0.77981749     1.90100
O406        O  0.08745237  0.87636451  0.79380015    -0.74500
O407        O  0.09471037  0.87361759  0.70593968    -0.74300
O408        O  0.04858066  0.92110825  0.75149608    -0.80000
O409        O  0.13017847  0.93665824  0.69296617    -0.78200
O410        O  0.12255774  0.93394935  0.75142073    -1.14300
O411        O  0.16884967  0.99965654  0.72293679    -0.73500
C412        C  0.19798733  0.97774521  0.73128968     0.97200
C413        C  0.09807024  0.90467806  0.81520489     0.93600
Al414      Al  0.09300429  0.88076389  0.75025600     1.55600
O415        O  0.15326606  0.01271825  0.78274932    -0.78200
C416        C  0.11726072  0.89405413  0.68753661     0.97700
C417        C  0.16143733  0.83397683  0.76698545     0.92600
O418        O  0.16896071  0.87133432  0.78341386    -0.83500
O419        O  0.08178183  0.93306542  0.50864845    -0.82900
C420        C  0.23793690  0.95019790  0.52038969     0.96400
O421        O  0.21350701  0.96941944  0.53713338    -0.72100
O422        O  0.16892467  0.02396435  0.50434313    -0.75600
Al423      Al  0.16068234  0.97384901  0.53339734     1.49000
C424        C  0.14370275  0.03599684  0.48604934     0.91700
O425        O  0.15315820  0.93383707  0.44648375    -0.81900
O426        O  0.14354440  0.82694229  0.50515927    -0.75400
Al427      Al  0.11908681  0.93308139  0.47839868     1.90100
O428        O  0.18879628  0.87154886  0.46065822    -0.74500
O429        O  0.18405145  0.86472837  0.54896527    -0.74300
O430        O  0.22955314  0.91292959  0.50416439    -0.80000
O431        O  0.15181494  0.92967743  0.56439858    -0.78200
O432        O  0.15506247  0.92645672  0.50548347    -1.14300
O433        O  0.10907751  0.98940355  0.53692927    -0.73500
C434        C  0.08024761  0.96549588  0.52939400     0.97200
C435        C  0.17730985  0.90120118  0.44042123     0.93600
Al436      Al  0.18449905  0.87324422  0.50483998     1.55600
O437        O  0.12008521  0.00426215  0.47720722    -0.78200
C438        C  0.16415034  0.88675209  0.56881046     0.97700
C439        C  0.11563897  0.82642508  0.48789246     0.92600
O440        O  0.10855807  0.86398666  0.47227282    -0.83500
O441        O  0.57857711  0.94714983  0.00313222    -0.82900
C442        C  0.73245866  0.96014120  0.02314226     0.96400
O443        O  0.70780445  0.97581197  0.04116031    -0.72100
O444        O  0.66705719  0.03478059  0.00837742    -0.75600
Al445      Al  0.65512995  0.98249318  0.03479975     1.49000
C446        C  0.64486540  0.04950754  0.98844488     0.91700
O447        O  0.65610967  0.94989628  0.94620232    -0.81900
O448        O  0.63869284  0.83979443  0.00245985    -0.75400
Al449      Al  0.61877377  0.94822410  0.97589021     1.90100
O450        O  0.68697953  0.88386815  0.96089622    -0.74500
O451        O  0.67804004  0.87357751  0.04827990    -0.74300
O452        O  0.72499507  0.92389703  0.00588947    -0.80000
O453        O  0.64260710  0.93541664  0.06348425    -0.78200
O454        O  0.65154181  0.93820114  0.00503636    -1.14300
O455        O  0.60332865  0.99918485  0.03565374    -0.73500
C456        C  0.57523989  0.97623924  0.02531751     0.97200
C457        C  0.67845277  0.91484128  0.94055651     0.93600
Al458      Al  0.68030549  0.88444824  0.00453291     1.55600
O459        O  0.62131233  0.01989776  0.97692367    -0.78200
C460        C  0.65578976  0.89279699  0.06746336     0.97700
C461        C  0.61235666  0.84096980  0.98362376     0.92600
O462        O  0.60776735  0.87937122  0.96798708    -0.83500
O463        O  0.69296407  0.93868615  0.25095833    -0.82900
C464        C  0.53871463  0.95522354  0.23221116     0.96400
O465        O  0.56341333  0.97108889  0.21442298    -0.72100
O466        O  0.60584023  0.02874043  0.24812688    -0.75600
Al467      Al  0.61646777  0.97648684  0.22053204     1.49000
C468        C  0.62871942  0.04249865  0.26805302     0.91700
O469        O  0.61573997  0.94093290  0.30812848    -0.81900
O470        O  0.63103959  0.83263174  0.24880086    -0.75400
Al471      Al  0.65278273  0.93957938  0.27834878     1.90100
O472        O  0.58456563  0.87505802  0.29254719    -0.74500
O473        O  0.59047329  0.86935791  0.20477466    -0.74300
O474        O  0.54584313  0.91895499  0.24919112    -0.80000
O475        O  0.62776251  0.92978909  0.19083511    -0.78200
O476        O  0.61958002  0.93129219  0.24925689    -1.14300
O477        O  0.66870625  0.99188121  0.21961138    -0.73500
C478        C  0.69666335  0.96852064  0.22951305     0.97200
C479        C  0.59388966  0.90529414  0.31342963     0.93600
Al480      Al  0.58990615  0.87815103  0.24877975     1.55600
O481        O  0.65127621  0.01156164  0.27916568    -0.78200
C482        C  0.61288389  0.88828316  0.18581391     0.97700
C483        C  0.65761045  0.83252654  0.26741997     0.92600
O484        O  0.66268009  0.87002651  0.28434337    -0.83500
O485        O  0.35847321  0.02306458  0.98049309    -0.82900
C486        C  0.42104367  0.21322026  0.00260093     0.96400
O487        O  0.43507276  0.17752653  0.98796216    -0.72100
O488        O  0.44234366  0.09623053  0.01875264    -0.75600
Al489      Al  0.42102232  0.10998235  0.98101596     1.49000
C490        C  0.43567956  0.05591477  0.03180007     0.91700
O491        O  0.35560998  0.09640680  0.05194142    -0.81900
O492        O  0.30606043  0.13506325  0.97690210    -0.75400
Al493      Al  0.35764532  0.06178299  0.01595297     1.90100
O494        O  0.32900893  0.16468981  0.03514200    -0.74500
O495        O  0.36465853  0.18422007  0.95297111    -0.74300
O496        O  0.38729482  0.21178676  0.01082311    -0.80000
O497        O  0.40489822  0.12446046  0.94250880    -0.78200
O498        O  0.37568820  0.11436431  0.99678104    -1.14300
O499        O  0.41679821  0.03981659  0.96960930    -0.73500
C500        C  0.38870952  0.01102401  0.96778012     0.97200
C501        C  0.33761341  0.13590247  0.05669404     0.93600
Al502      Al  0.34876535  0.16961315  0.99409681     1.55600
O503        O  0.40428931  0.03526673  0.02903607    -0.78200
C504        C  0.38613126  0.16155084  0.93458661     0.97700
C505        C  0.28990116  0.09875581  0.98935825     0.92600
O506        O  0.30657097  0.07371340  0.00877889    -0.83500
O507        O  0.42374121  0.01419954  0.75984317    -0.82900
C508        C  0.35985583  0.20518798  0.74386839     0.96400
O509        O  0.34822448  0.17070471  0.76047156    -0.72100
O510        O  0.33698972  0.08952961  0.72995437    -0.75600
Al511      Al  0.36278211  0.10280838  0.76559259     1.49000
C512        C  0.34091299  0.04922173  0.71578186     0.91700
O513        O  0.41975741  0.08884142  0.68910699    -0.81900
O514        O  0.47564921  0.12824770  0.76234271    -0.75400
Al515      Al  0.42104345  0.05402905  0.72509373     1.90100
O516        O  0.44875706  0.15649508  0.70495060    -0.74500
O517        O  0.41993758  0.17943598  0.78907446    -0.74300
O518        O  0.39215642  0.20314777  0.73244775    -0.80000
O519        O  0.38428005  0.11669960  0.80260892    -0.78200
O520        O  0.40552103  0.10681529  0.74611011    -1.14300
O521        O  0.36760582  0.03306863  0.77578326    -0.73500
C522        C  0.39523347  0.00357395  0.77514810     0.97200
C523        C  0.43743046  0.12828190  0.68355707     0.93600
Al524      Al  0.43233028  0.16247161  0.74714346     1.55600
O525        O  0.37231573  0.02810307  0.71493460    -0.78200
C526        C  0.40156719  0.15607759  0.80901514     0.97700
C527        C  0.49039653  0.09088355  0.74958544     0.92600
O528        O  0.47274948  0.06651373  0.72989036    -0.83500
O529        O  0.07637654  0.44628107  0.00732300    -0.82900
C530        C  0.23180729  0.46476355  0.01974266     0.96400
O531        O  0.20807922  0.47925229  0.03879848    -0.72100
O532        O  0.16415909  0.53604562  0.00674253    -0.75600
Al533      Al  0.15496058  0.48426070  0.03423883     1.49000
C534        C  0.14010760  0.54961864  0.98787130     0.91700
O535        O  0.14860721  0.44921744  0.94576676    -0.81900
O536        O  0.13930798  0.33985188  0.00279910    -0.75400
Al537      Al  0.11429385  0.44746126  0.97765408     1.90100
O538        O  0.18381660  0.38640190  0.95928781    -0.74500
O539        O  0.18055434  0.37636509  0.04696340    -0.74300
O540        O  0.22392140  0.42852834  0.00251287    -0.80000
O541        O  0.14523298  0.43747045  0.06371341    -0.78200
O542        O  0.14983672  0.43920231  0.00491906    -1.14300
O543        O  0.10333603  0.50017653  0.03744961    -0.73500
C544        C  0.07459876  0.47671492  0.02901416     0.97200
C545        C  0.17288049  0.41693035  0.93945295     0.93600
Al546      Al  0.17988820  0.38681502  0.00312579     1.55600
O547        O  0.11620846  0.51909779  0.97779507    -0.78200
C548        C  0.15989118  0.39562485  0.06730388     0.97700
C549        C  0.11093881  0.34006049  0.98596998     0.92600
O550        O  0.10368483  0.37838152  0.97089972    -0.83500
O551        O  0.19509548  0.44360943  0.24667639    -0.82900
C552        C  0.03893392  0.45886316  0.23510122     0.96400
O553        O  0.06300990  0.47854476  0.21833522    -0.72100
O554        O  0.10710918  0.53300122  0.25199911    -0.75600
Al555      Al  0.11593040  0.48370810  0.22228924     1.49000
C556        C  0.13213446  0.54661231  0.27016243     0.91700
O557        O  0.12305842  0.44215210  0.30844563    -0.81900
O558        O  0.13326991  0.33707465  0.24771713    -0.75400
Al559      Al  0.15758807  0.44292374  0.27671979     1.90100
O560        O  0.08807635  0.37966123  0.29259134    -0.74500
O561        O  0.09326938  0.37457818  0.20466314    -0.74300
O562        O  0.04747024  0.42117321  0.25029699    -0.80000
O563        O  0.12528099  0.44023250  0.19079859    -0.78200
O564        O  0.12174852  0.43608796  0.24936363    -1.14300
O565        O  0.16762435  0.49982801  0.21908441    -0.73500
C566        C  0.19626586  0.47490692  0.22572655     0.97200
C567        C  0.09901136  0.40881395  0.31355933     0.93600
Al568      Al  0.09252310  0.38244110  0.24881670     1.55600
O569        O  0.15629704  0.51555030  0.27893942    -0.78200
C570        C  0.11376297  0.39694375  0.18562171     0.97700
C571        C  0.16105888  0.33578870  0.26498029     0.92600
O572        O  0.16854157  0.37304034  0.28139986    -0.83500
O573        O  0.85150961  0.52583312  0.99143249    -0.82900
C574        C  0.92044259  0.71392576  0.00542552     0.96400
O575        O  0.93143180  0.67808365  0.98905170    -0.72100
O576        O  0.94131353  0.59766848  0.02062584    -0.75600
Al577      Al  0.91530885  0.60976154  0.98485141     1.49000
C578        C  0.93552591  0.55903926  0.03566122     0.91700
O579        O  0.85878342  0.60357066  0.06096777    -0.81900
O580        O  0.80279539  0.63910355  0.98734621    -0.75400
Al581      Al  0.85589999  0.56666410  0.02571461     1.90100
O582        O  0.82938823  0.66992871  0.04462881    -0.74500
O583        O  0.86059731  0.68743978  0.96016699    -0.74300
O584        O  0.88806852  0.71330723  0.01690784    -0.80000
O585        O  0.89354696  0.62127757  0.94802026    -0.78200
O586        O  0.87270907  0.61707305  0.00423292    -1.14300
O587        O  0.90851197  0.53899811  0.97571124    -0.73500
C588        C  0.87961856  0.51157823  0.97667285     0.97200
C589        C  0.83928659  0.64152744  0.06612566     0.93600
Al590      Al  0.84695219  0.67328275  0.00235140     1.55600
O591        O  0.90362970  0.53911243  0.03597866    -0.78200
C592        C  0.87836350  0.66142046  0.94077038     0.97700
C593        C  0.78706775  0.60404942  0.00146639     0.92600
O594        O  0.80445197  0.58084347  0.02142774    -0.83500
O595        O  0.92180230  0.51465767  0.76715348    -0.82900
C596        C  0.86005203  0.70648805  0.75101833     0.96400
O597        O  0.84749164  0.67243766  0.76757156    -0.72100
O598        O  0.83463123  0.59016574  0.73842075    -0.75600
Al599      Al  0.86146446  0.60444194  0.77361593     1.49000
C600        C  0.83853271  0.55022546  0.72387190     0.91700
O601        O  0.91648372  0.58951484  0.69668913    -0.81900
O602        O  0.97552585  0.62641898  0.76862080    -0.75400
Al603      Al  0.91860531  0.55427005  0.73244976     1.90100
O604        O  0.94734572  0.65580366  0.71239140    -0.74500
O605        O  0.92112969  0.67941179  0.79626944    -0.74300
O606        O  0.89265486  0.70390647  0.74032342    -0.80000
O607        O  0.88317455  0.61944956  0.81037710    -0.78200
O608        O  0.90418900  0.60729108  0.75376017    -1.14300
O609        O  0.86637628  0.53470233  0.78451000    -0.73500
C610        C  0.89386329  0.50487674  0.78337310     0.97200
C611        C  0.93452542  0.62869430  0.69114183     0.93600
Al612      Al  0.93217106  0.66202042  0.75445372     1.55600
O613        O  0.86977188  0.52890082  0.72308825    -0.78200
C614        C  0.90224491  0.65747095  0.81639804     0.97700
C615        C  0.98970984  0.58984877  0.75458133     0.92600
O616        O  0.97065790  0.56542324  0.73585617    -0.83500
O617        O  0.69385368  0.44286575  0.75041157    -0.82900
C618        C  0.53832981  0.45260736  0.73618674     0.96400
O619        O  0.56221866  0.46913796  0.71805135    -0.72100
O620        O  0.60355951  0.52788789  0.75316868    -0.75600
Al621      Al  0.61488465  0.47757691  0.72406186     1.49000
C622        C  0.62670994  0.54075291  0.77328007     0.91700
O623        O  0.62136730  0.43673625  0.81142829    -0.81900
O624        O  0.63222638  0.33171326  0.75107653    -0.75400
Al625      Al  0.65556176  0.43923102  0.77967686     1.90100
O626        O  0.58720845  0.37350491  0.79590355    -0.74500
O627        O  0.59201149  0.36946089  0.70759005    -0.74300
O628        O  0.54687696  0.41726302  0.75338596    -0.80000
O629        O  0.62714117  0.43233996  0.69356137    -0.78200
O630        O  0.62054662  0.43107186  0.75203098    -1.14300
O631        O  0.66584043  0.49754140  0.72235458    -0.73500
C632        C  0.69519868  0.47599049  0.73055410     0.97200
C633        C  0.59828527  0.40268066  0.81680119     0.93600
Al634      Al  0.59145109  0.37732224  0.75188074     1.55600
O635        O  0.65086229  0.51021778  0.78243557    -0.78200
C636        C  0.61413218  0.38954376  0.68870445     0.97700
C637        C  0.66022278  0.33190968  0.76823346     0.92600
O638        O  0.66809876  0.37036425  0.78343808    -0.83500
O639        O  0.57921102  0.43306738  0.50428430    -0.82900
C640        C  0.73260498  0.45465696  0.52698910     0.96400
O641        O  0.70668802  0.46926890  0.54417905    -0.72100
O642        O  0.66453705  0.52579881  0.51120319    -0.75600
Al643      Al  0.65377810  0.47271230  0.53719043     1.49000
C644        C  0.64368092  0.53925230  0.49007567     0.91700
O645        O  0.65776071  0.44078397  0.44880233    -0.81900
O646        O  0.64313517  0.32963449  0.50488960    -0.75400
Al647      Al  0.61999455  0.43670137  0.47774416     1.90100
O648        O  0.69003322  0.37577135  0.46325176    -0.74500
O649        O  0.68110864  0.36607980  0.55105707    -0.74300
O650        O  0.72656606  0.41900800  0.50882239    -0.80000
O651        O  0.64241120  0.42479813  0.56555745    -0.78200
O652        O  0.65245996  0.42851775  0.50730983    -1.14300
O653        O  0.60121827  0.48608309  0.53741867    -0.73500
C654        C  0.57425048  0.46121938  0.52666881     0.97200
C655        C  0.68083548  0.40678379  0.44308084     0.93600
Al656      Al  0.68318285  0.37667173  0.50709882     1.55600
O657        O  0.62062969  0.50879825  0.47856783    -0.78200
C658        C  0.65797623  0.38386044  0.57011239     0.97700
C659        C  0.61725320  0.32895996  0.48561697     0.92600
O660        O  0.61136755  0.36689860  0.46974182    -0.83500
O661        O  0.34829152  0.50052026  0.48827570    -0.82900
C662        C  0.41909568  0.68751752  0.50528880     0.96400
O663        O  0.43015176  0.65155991  0.48913051    -0.72100
O664        O  0.43799430  0.56959351  0.51936428    -0.75600
Al665      Al  0.41315945  0.58442331  0.48340913     1.49000
C666        C  0.43138216  0.53073363  0.53392693     0.91700
O667        O  0.35402728  0.57615495  0.55910308    -0.81900
O668        O  0.30143617  0.61746096  0.48536205    -0.75400
Al669      Al  0.35197985  0.54062620  0.52306081     1.90100
O670        O  0.32776488  0.64481941  0.54297147    -0.74500
O671        O  0.35922813  0.66423135  0.45983553    -0.74300
O672        O  0.38676221  0.68715464  0.51667630    -0.80000
O673        O  0.39308413  0.59958888  0.44609585    -0.78200
O674        O  0.37016548  0.59169640  0.50241977    -1.14300
O675        O  0.40524908  0.51473769  0.47263258    -0.73500
C676        C  0.37612241  0.48762318  0.47278254     0.97200
C677        C  0.33731087  0.61647928  0.56444351     0.93600
Al678      Al  0.34552213  0.64891935  0.50129994     1.55600
O679        O  0.39921084  0.51158081  0.53375271    -0.78200
C680        C  0.37663846  0.63943149  0.43979761     0.97700
C681        C  0.28472697  0.58177169  0.49787555     0.92600
O682        O  0.30075473  0.55645085  0.51768912    -0.83500
O683        O  0.41609846  0.51361444  0.26075971    -0.82900
C684        C  0.35420167  0.70627682  0.24850713     0.96400
O685        O  0.34022604  0.66985896  0.26219833    -0.72100
O686        O  0.33091283  0.59055031  0.22935947    -0.75600
Al687      Al  0.35431838  0.60176827  0.26652280     1.49000
C688        C  0.33600657  0.55129609  0.21440988     0.91700
O689        O  0.41574778  0.59410172  0.19243242    -0.81900
O690        O  0.46887484  0.62485740  0.26806521    -0.75400
Al691      Al  0.41530151  0.55581560  0.22710388     1.90100
O692        O  0.44376474  0.66031995  0.21182286    -0.74500
O693        O  0.41294674  0.67308737  0.29561113    -0.74300
O694        O  0.38769419  0.70514985  0.23975826    -0.80000
O695        O  0.37245364  0.61346407  0.30493082    -0.78200
O696        O  0.39872362  0.60683437  0.24930260    -1.14300
O697        O  0.35897525  0.53133584  0.27540106    -0.73500
C698        C  0.38700436  0.50241391  0.27527283     0.97200
C699        C  0.43320489  0.63451543  0.18916885     0.93600
Al700      Al  0.42629969  0.66149036  0.25353497     1.55600
O701        O  0.36739983  0.53024456  0.21469429    -0.78200
C702        C  0.39256619  0.64896638  0.31381565     0.97700
C703        C  0.48437500  0.58966455  0.25376753     0.92600
O704        O  0.46707386  0.56706579  0.23321630    -0.83500
C705        C  0.35413300  0.66461000  0.35894298    -0.10300
C706        C  0.39000232  0.66189962  0.34600663     0.05900
C707        C  0.42138816  0.66199786  0.36484227    -0.04100
C708        C  0.41633737  0.65871003  0.39598856    -0.08500
C709        C  0.38031249  0.65698166  0.40869424     0.05000
C710        C  0.34915706  0.66321784  0.39010207    -0.03500
Br711      Br  0.29935342  0.66475261  0.40584907    -0.03200
H712        H  0.32970076  0.66498031  0.34461644     0.08900
H713        H  0.44060979  0.65465435  0.41026439     0.06900
Br714      Br  0.47122239  0.66045031  0.34904222    -0.03700
C715        C  0.52929252  0.51245482  0.55551456    -0.10300
C716        C  0.53621280  0.46900018  0.53857216     0.05900
C717        C  0.50568944  0.43833505  0.53011568    -0.04100
C718        C  0.46939342  0.45584407  0.53426360    -0.08500
C719        C  0.46327708  0.50373097  0.54591802     0.05000
C720        C  0.49303866  0.53014067  0.55900414    -0.03500
Br721      Br  0.48586864  0.59372862  0.57808232    -0.03200
H722        H  0.55214584  0.53552182  0.56344514     0.08900
H723        H  0.44640126  0.43485062  0.52459409     0.06900
Br724      Br  0.51085748  0.37475259  0.51027000    -0.03700
C725        C  0.67535021  0.36125509  0.62211193    -0.10300
C726        C  0.64875171  0.36006308  0.59913424     0.05900
C727        C  0.61077228  0.35362536  0.60709214    -0.04100
C728        C  0.59945437  0.35655351  0.63733958    -0.08500
C729        C  0.62574784  0.36515142  0.66004629     0.05000
C730        C  0.66411059  0.36344812  0.65235356    -0.03500
Br731      Br  0.70222595  0.36912998  0.68235794    -0.03200
H732        H  0.70459398  0.36604307  0.61658968     0.08900
H733        H  0.56995452  0.35719886  0.64269616     0.06900
Br734      Br  0.57290369  0.34731825  0.57690715    -0.03700
C735        C  0.77465873  0.55742270  0.70521315    -0.10300
C736        C  0.80480330  0.52626660  0.71187242     0.05900
C737        C  0.79825570  0.47508869  0.71628707    -0.04100
C738        C  0.76170027  0.45843265  0.72009526    -0.08500
C739        C  0.73156661  0.49163773  0.71841334     0.05000
C740        C  0.73809198  0.54081530  0.70856062    -0.03500
Br741      Br  0.69975472  0.59024649  0.70400047    -0.03200
H742        H  0.77952354  0.59657354  0.70090446     0.08900
H743        H  0.75705919  0.42005448  0.72641105     0.06900
Br744      Br  0.83749260  0.42722447  0.72126612    -0.03700
C745        C  0.92199919  0.66979460  0.89839909    -0.10300
C746        C  0.88558797  0.67762787  0.90966008     0.05900
C747        C  0.85705935  0.69037822  0.88960716    -0.04100
C748        C  0.86435410  0.68927816  0.85862505    -0.08500
C749        C  0.89988717  0.67624795  0.84742068     0.05000
C750        C  0.92922855  0.66866219  0.86755263    -0.03500
Br751      Br  0.97778735  0.64840949  0.85392330    -0.03200
H752        H  0.94439608  0.66029090  0.91365129     0.08900
H753        H  0.84139374  0.69439285  0.84313814     0.06900
Br754      Br  0.80697387  0.70236131  0.90298953    -0.03700
C755        C  0.23625244  0.53466672  0.19889368    -0.10300
C756        C  0.23194668  0.48691368  0.21101405     0.05900
C757        C  0.26321318  0.45519584  0.21235797    -0.04100
C758        C  0.29882814  0.47516075  0.20797139    -0.08500
C759        C  0.30315665  0.52606877  0.20192643     0.05000
C760        C  0.27168442  0.55426127  0.19408382    -0.03500
Br761      Br  0.27565600  0.62200352  0.18095720    -0.03200
H762        H  0.21236206  0.55877456  0.19592425     0.08900
H763        H  0.32295522  0.45236300  0.21285530     0.06900
Br764      Br  0.25909246  0.38556600  0.22123359    -0.03700
C765        C  0.03436646  0.53795674  0.05480161    -0.10300
C766        C  0.03823349  0.49002511  0.04220949     0.05900
C767        C  0.00613311  0.46023087  0.03806956    -0.04100
C768        C  0.97097486  0.48195608  0.04108294    -0.08500
C769        C  0.96773281  0.53288816  0.04785036     0.05000
C770        C  0.99931324  0.55973804  0.05738717    -0.03500
Br771      Br  0.99643072  0.62814688  0.07025012    -0.03200
H772        H  0.05868225  0.56076733  0.05948155     0.08900
H773        H  0.94659016  0.46052283  0.03452960     0.06900
Br774      Br  0.00828347  0.39123232  0.02627149    -0.03700
C775        C  0.11544147  0.35945897  0.10373068    -0.10300
C776        C  0.15267230  0.37215043  0.09667406     0.05900
C777        C  0.17793780  0.38008243  0.12033353    -0.04100
C778        C  0.16509654  0.38055854  0.15008651    -0.08500
C779        C  0.12692744  0.37430660  0.15692836     0.05000
C780        C  0.10246059  0.36039858  0.13364075    -0.03500
Br781      Br  0.05030190  0.35043021  0.14105610    -0.03200
H782        H  0.09543950  0.35424911  0.08571339     0.08900
H783        H  0.18436551  0.39145323  0.16775209     0.06900
Br784      Br  0.22843970  0.40044928  0.11277646    -0.03700
C785        C  0.42961822  0.17853176  0.85829234    -0.10300
C786        C  0.39793236  0.17440163  0.84017530     0.05900
C787        C  0.36214906  0.17771311  0.85363966    -0.04100
C788        C  0.35856506  0.17911338  0.88491689    -0.08500
C789        C  0.39020081  0.17706424  0.90309783     0.05000
C790        C  0.42599089  0.17991725  0.88963815    -0.03500
Br791      Br  0.47091120  0.18290153  0.91309032    -0.03200
H792        H  0.45716135  0.17664267  0.84825763     0.08900
H793        H  0.33101889  0.17754660  0.89496318     0.06900
Br794      Br  0.31691416  0.17687272  0.83055244    -0.03700
C795        C  0.53317473  0.03275517  0.05320843    -0.10300
C796        C  0.53796986  0.98756431  0.03744922     0.05900
C797        C  0.50621976  0.95847872  0.03021152    -0.04100
C798        C  0.47087371  0.97889814  0.03419599    -0.08500
C799        C  0.46693433  0.02820747  0.04422249     0.05000
C800        C  0.49779889  0.05339307  0.05645374    -0.03500
Br801      Br  0.49340215  0.11828292  0.07449362    -0.03200
H802        H  0.55706638  0.05462531  0.06033252     0.08900
H803        H  0.44697508  0.95863938  0.02544617     0.06900
Br804      Br  0.50837930  0.89315762  0.01207903    -0.03700
C805        C  0.67109326  0.86045119  0.11819859    -0.10300
C806        C  0.64454607  0.86790813  0.09568024     0.05900
C807        C  0.60628870  0.86599343  0.10357343    -0.04100
C808        C  0.59531016  0.86467014  0.13382632    -0.08500
C809        C  0.62214374  0.86468357  0.15658310     0.05000
C810        C  0.66007880  0.85863038  0.14847954    -0.03500
Br811      Br  0.69826713  0.85456385  0.17842513    -0.03200
H812        H  0.70054172  0.86151644  0.11268192     0.08900
H813        H  0.56609158  0.86920439  0.13952666     0.06900
Br814      Br  0.56800334  0.87085380  0.07388927    -0.03700
C815        C  0.27633367  0.05542940  0.69945023    -0.10300
C816        C  0.30681966  0.02442621  0.70521428     0.05900
C817        C  0.30031461  0.97409977  0.71213241    -0.04100
C818        C  0.26422689  0.95886012  0.71956107    -0.08500
C819        C  0.23422634  0.99240756  0.71841208     0.05000
C820        C  0.24021515  0.04036226  0.70634914    -0.03500
Br821      Br  0.20236386  0.09081380  0.70307774    -0.03200
H822        H  0.28107525  0.09394756  0.69339520     0.08900
H823        H  0.25991828  0.92123468  0.72742968     0.06900
Br824      Br  0.33961889  0.92581695  0.71440041    -0.03700
C825        C  0.17989550  0.86584808  0.62150753    -0.10300
C826        C  0.15386034  0.86462082  0.59811970     0.05900
C827        C  0.11558771  0.85956022  0.60557535    -0.04100
C828        C  0.10364890  0.86248612  0.63567375    -0.08500
C829        C  0.12947700  0.87037451  0.65879523     0.05000
C830        C  0.16800283  0.86848987  0.65158725    -0.03500
Br831      Br  0.20561790  0.87434730  0.68196087    -0.03200
H832        H  0.20930244  0.87003115  0.61638582     0.08900
H833        H  0.07404726  0.86371442  0.64060973     0.06900
Br834      Br  0.07810097  0.85541600  0.57498426    -0.03700
C835        C  0.80148757  0.97105185  0.22069525    -0.10300
C836        C  0.80593318  0.02040188  0.21140897     0.05900
C837        C  0.77495231  0.04671801  0.20067709    -0.04100
C838        C  0.73938612  0.02640711  0.20372098    -0.08500
C839        C  0.73423817  0.98039217  0.21797074     0.05000
C840        C  0.76587040  0.95086908  0.22438648    -0.03500
Br841      Br  0.76303684  0.88472752  0.24048991    -0.03200
H842        H  0.82537723  0.95020655  0.22857537     0.08900
H843        H  0.71563296  0.04898985  0.19755280     0.06900
Br844      Br  0.77957067  0.11266040  0.18482348    -0.03700
C845        C  0.01364978  0.94644479  0.53778847    -0.10300
C846        C  0.04386965  0.97880926  0.54264485     0.05900
C847        C  0.03701559  0.02652801  0.55529468    -0.04100
C848        C  0.00054605  0.04431617  0.55620776    -0.08500
C849        C  0.97094721  0.01472240  0.54588978     0.05000
C850        C  0.97713533  0.96376696  0.53994172    -0.03500
Br851      Br  0.93794514  0.91762510  0.53018931    -0.03200
H852        H  0.01837839  0.90870735  0.52983545     0.08900
H853        H  0.99571355  0.08301288  0.56215443     0.06900
Br854      Br  0.07536258  0.07242950  0.56789904    -0.03700
C855        C  0.85982393  0.17749216  0.35814293    -0.10300
C856        C  0.89627702  0.17332731  0.34648063     0.05900
C857        C  0.92639558  0.17221378  0.36653008    -0.04100
C858        C  0.91942721  0.16826749  0.39745502    -0.08500
C859        C  0.88264054  0.16663824  0.40892177     0.05000
C860        C  0.85289550  0.17493417  0.38911947    -0.03500
Br861      Br  0.80231578  0.17733643  0.40256566    -0.03200
H862        H  0.83631790  0.17879370  0.34285627     0.08900
H863        H  0.94286728  0.16339511  0.41250773     0.06900
Br864      Br  0.97698219  0.17047712  0.35248484    -0.03700
C865        C  0.94332935  0.69949181  0.61808216    -0.10300
C866        C  0.93954969  0.66044838  0.59691584     0.05900
C867        C  0.93870926  0.61102676  0.60710639    -0.04100
C868        C  0.93949379  0.60187352  0.63793081    -0.08500
C869        C  0.94059547  0.64107752  0.65919211     0.05000
C870        C  0.94366211  0.69037739  0.64894791    -0.03500
Br871      Br  0.94441539  0.74730010  0.67542303    -0.03200
H872        H  0.94434896  0.73775833  0.61061609     0.08900
H873        H  0.93755119  0.56364334  0.64534537     0.06900
Br874      Br  0.93229018  0.55459523  0.58075639    -0.03700
C875        C  0.03371260  0.74322634  0.46584608    -0.10300
C876        C  0.02350442  0.72482688  0.49408666     0.05900
C877        C  0.04824175  0.73191567  0.51845314    -0.04100
C878        C  0.08074227  0.76040675  0.51497411    -0.08500
C879        C  0.08861542  0.78412895  0.48772433     0.05000
C880        C  0.06580936  0.77295624  0.46252158    -0.03500
Br881      Br  0.07623341  0.79878297  0.42328190    -0.03200
H882        H  0.01510584  0.73806191  0.44689014     0.08900
H883        H  0.09812756  0.76753095  0.53444254     0.06900
Br884      Br  0.03710935  0.70703126  0.55779621    -0.03700
C885        C  0.84964409  0.86736068  0.45717532    -0.10300
C886        C  0.88458839  0.84408639  0.45904837     0.05900
C887        C  0.91697286  0.87267460  0.45345179    -0.04100
C888        C  0.91451387  0.92454705  0.45318165    -0.08500
C889        C  0.88017263  0.94807055  0.45839972     0.05000
C890        C  0.84717075  0.91924990  0.45677965    -0.03500
Br891      Br  0.79811688  0.94824423  0.45744776    -0.03200
H892        H  0.82423372  0.84587746  0.45974848     0.08900
H893        H  0.94008690  0.94611890  0.45267138     0.06900
Br894      Br  0.96573723  0.84374384  0.44940806    -0.03700
C895        C  0.80901020  0.55028728  0.54522573    -0.10300
C896        C  0.82793174  0.55244137  0.51764808     0.05900
C897        C  0.81922831  0.51687897  0.49526475    -0.04100
C898        C  0.79003557  0.48266704  0.49964915    -0.08500
C899        C  0.76886485  0.48279491  0.52636424     0.05000
C900        C  0.78012145  0.51557060  0.54992427    -0.03500
Br901      Br  0.75733916  0.51519406  0.58904683    -0.03200
H902        H  0.81574757  0.57700739  0.56281172     0.08900
H903        H  0.78252413  0.45783490  0.48129187     0.06900
Br904      Br  0.84547263  0.51539384  0.45768206    -0.03700
C905        C  0.82534155  0.69964763  0.10880539    -0.10300
C906        C  0.82854763  0.65088029  0.09784043     0.05900
C907        C  0.82541315  0.61093305  0.11840411    -0.04100
C908        C  0.82557454  0.62036229  0.14932231    -0.08500
C909        C  0.82728626  0.66912790  0.16036155     0.05000
C910        C  0.82397624  0.70901306  0.13982152    -0.03500
Br911      Br  0.81702833  0.77696968  0.15257267    -0.03200
H912        H  0.82566175  0.73062109  0.09338450     0.08900
H913        H  0.82619330  0.58934271  0.16470779     0.06900
Br914      Br  0.82059705  0.54237126  0.10612146    -0.03700
C915        C  0.72082518  0.72384561  0.24490649    -0.10300
C916        C  0.74895616  0.72854305  0.26667548     0.05900
C917        C  0.74322435  0.76073851  0.29126524    -0.04100
C918        C  0.71158328  0.79122017  0.29230059    -0.08500
C919        C  0.68485743  0.79038509  0.26901895     0.05000
C920        C  0.68853054  0.75345972  0.24618991    -0.03500
Br921      Br  0.65223092  0.74297562  0.21500773    -0.03200
H922        H  0.72504243  0.69913623  0.22580319     0.08900
H923        H  0.70920957  0.81793786  0.31059500     0.06900
Br924      Br  0.78023365  0.76843655  0.32210420    -0.03700
C925        C  0.85889781  0.87640634  0.30177269    -0.10300
C926        C  0.89145845  0.84819661  0.29731158     0.05900
C927        C  0.92622101  0.87309283  0.29738527    -0.04100
C928        C  0.92700767  0.92503315  0.29562153    -0.08500
C929        C  0.89379438  0.95285499  0.29456037     0.05000
C930        C  0.85969340  0.92832146  0.30063523    -0.03500
Br931      Br  0.81237813  0.96160034  0.30395467    -0.03200
H932        H  0.83205623  0.85793986  0.30319323     0.08900
H933        H  0.95368941  0.94325059  0.29241954     0.06900
Br934      Br  0.97347140  0.83930255  0.29583124    -0.03700
C935        C  0.84685558  0.62585976  0.36516773    -0.10300
C936        C  0.87913722  0.62818743  0.34759171     0.05900
C937        C  0.91441947  0.62495833  0.36176150    -0.04100
C938        C  0.91700046  0.62557852  0.39311866    -0.08500
C939        C  0.88482327  0.62953534  0.41070724     0.05000
C940        C  0.84942771  0.62649254  0.39657942    -0.03500
Br941      Br  0.80354773  0.62579756  0.41901056    -0.03200
H942        H  0.81967025  0.62770505  0.35460174     0.08900
H943        H  0.94424817  0.62702960  0.40363401     0.06900
Br944      Br  0.96028595  0.62312435  0.33939624    -0.03700
C945        C  0.95357602  0.52293132  0.26872802    -0.10300
C946        C  0.94090845  0.55070125  0.24416742     0.05900
C947        C  0.95715014  0.54211407  0.21579102    -0.04100
C948        C  0.98725488  0.50892497  0.21280004    -0.08500
C949        C  0.00156140  0.48317172  0.23773336     0.05000
C950        C  0.98323949  0.48907409  0.26575323    -0.03500
Br951      Br  0.00008717  0.45718026  0.30172602    -0.03200
H952        H  0.94156796  0.52959028  0.29077640     0.08900
H953        H  0.00084347  0.50524606  0.19112022     0.06900
Br954      Br  0.94202996  0.57930810  0.18130200    -0.03700
C955        C  0.19174489  0.94133110  0.39165508    -0.10300
C956        C  0.18925643  0.89719373  0.40843167     0.05900
C957        C  0.18958351  0.85126196  0.39283538    -0.04100
C958        C  0.18874318  0.85044013  0.36127450    -0.08500
C959        C  0.18762095  0.89474896  0.34455916     0.05000
C960        C  0.19089377  0.94054803  0.36011303    -0.03500
Br961      Br  0.18851536  0.00347530  0.34008207    -0.03200
H962        H  0.19142027  0.97703152  0.40322354     0.08900
H963        H  0.18635903  0.81483234  0.34975890     0.06900
Br964      Br  0.18568690  0.78874462  0.41315340    -0.03700
C965        C  0.05465961  0.07857839  0.24141374    -0.10300
C966        C  0.02586921  0.07635676  0.26279284     0.05900
C967        C  0.02987496  0.04437299  0.28738108    -0.04100
C968        C  0.06046596  0.01207687  0.28886218    -0.08500
C969        C  0.08786853  0.01084771  0.26609354     0.05000
C970        C  0.08581625  0.04696123  0.24307340    -0.03500
Br971      Br  0.12210382  0.05239175  0.21140921    -0.03200
H972        H  0.05163131  0.10262351  0.22214990     0.08900
H973        H  0.06154752  0.98567699  0.30709595     0.06900
Br974      Br  0.99162257  0.03887553  0.31739927    -0.03700
C975        C  0.00055585  0.74123198  0.20268592    -0.10300
C976        C  0.97039977  0.77281673  0.20910891     0.05900
C977        C  0.97660960  0.82472538  0.21067230    -0.04100
C978        C  0.01321524  0.84259294  0.21182512    -0.08500
C979        C  0.04352616  0.80960733  0.21081666     0.05000
C980        C  0.03704602  0.75891655  0.20375481    -0.03500
Br981      Br  0.07575443  0.70956006  0.20064575    -0.03200
H982        H  0.99602920  0.70144729  0.20038790     0.08900
H983        H  0.01794314  0.88193222  0.21598026     0.06900
Br984      Br  0.93726285  0.87272452  0.21540278    -0.03700
C985        C  0.31841120  0.76109756  0.21399200    -0.10300
C986        C  0.33038629  0.75026991  0.24320730     0.05900
C987        C  0.31532224  0.77751449  0.26754595    -0.04100
C988        C  0.28743666  0.81300384  0.26270090    -0.08500
C989        C  0.27305158  0.82104824  0.23380445     0.05000
C990        C  0.28977412  0.79581423  0.20912066    -0.03500
Br991      Br  0.27403541  0.80607393  0.16838280    -0.03200
H992        H  0.32980412  0.74041737  0.19507092     0.08900
H993        H  0.27494251  0.83149134  0.28198558     0.06900
Br994      Br  0.33046511  0.76544733  0.30813234    -0.03700
C995        C  0.10869312  0.68334846  0.27660497    -0.10300
C996        C  0.14418448  0.70487419  0.27293027     0.05900
C997        C  0.17591836  0.67409476  0.27497880    -0.04100
C998        C  0.17154049  0.62229035  0.27724821    -0.08500
C999        C  0.13581381  0.60041463  0.27740447     0.05000
C1000       C  0.10428520  0.63172930  0.27870196    -0.03500
Br1001     Br  0.05440636  0.60594867  0.28226855    -0.03200
H1002       H  0.08395423  0.70645304  0.27590682     0.08900
H1003       H  0.19615206  0.59891589  0.27677063     0.06900
Br1004     Br  0.22565244  0.70081203  0.27473680    -0.03700
C1005       C  0.09219323  0.84868662  0.89206006    -0.10300
C1006       C  0.08847160  0.89193332  0.91002310     0.05900
C1007       C  0.07854318  0.93690374  0.89592027    -0.04100
C1008       C  0.07795705  0.93914829  0.86448004    -0.08500
C1009       C  0.08581581  0.89703296  0.84656807     0.05000
C1010       C  0.09091435  0.85087316  0.86064957    -0.03500
Br1011     Br  0.10267793  0.79136533  0.83834439    -0.03200
H1012       H  0.09905361  0.81349358  0.90238067     0.08900
H1013       H  0.07415233  0.97498199  0.85397485     0.06900
Br1014     Br  0.06985327  0.99804498  0.91756721    -0.03700
C1015       C  0.96191713  0.76298678  0.03978308    -0.10300
C1016       C  0.94663301  0.75607510  0.01105001     0.05900
C1017       C  0.96039278  0.78533745  0.98729018    -0.04100
C1018       C  0.99011224  0.81875654  0.99213630    -0.08500
C1019       C  0.00739161  0.82320583  0.02043986     0.05000
C1020       C  0.99208054  0.79573581  0.04462446    -0.03500
Br1021     Br  0.01138965  0.80029201  0.08479329    -0.03200
H1022       H  0.95163386  0.74085465  0.05828546     0.08900
H1023       H  0.00119993  0.83906752  0.97317406     0.06900
Br1024     Br  0.93999449  0.77994062  0.94755438    -0.03700
C1025       C  0.10385259  0.68036361  0.98205626    -0.10300
C1026       C  0.13739529  0.70731687  0.98137906     0.05900
C1027       C  0.17131724  0.68148146  0.97670209    -0.04100
C1028       C  0.17133310  0.62943792  0.97658437    -0.08500
C1029       C  0.13803255  0.60259627  0.98006812     0.05000
C1030       C  0.10380592  0.62845512  0.98107835    -0.03500
Br1031     Br  0.05629990  0.59583153  0.98496646    -0.03200
H1032       H  0.07756759  0.69974679  0.98497836     0.08900
H1033       H  0.19770566  0.60980640  0.97531039     0.06900
Br1034     Br  0.21902279  0.71397363  0.97356530    -0.03700
C1035       C  0.16371719  0.95361337  0.10461100    -0.10300
C1036       C  0.12586897  0.94457991  0.09769122     0.05900
C1037       C  0.10009773  0.94168006  0.12140917    -0.04100
C1038       C  0.11291209  0.94022608  0.15112319    -0.08500
C1039       C  0.15136049  0.94131405  0.15772455     0.05000
C1040       C  0.17654319  0.95251861  0.13448439    -0.03500
Br1041     Br  0.22899852  0.95904613  0.14194196    -0.03200
H1042       H  0.18397429  0.95592504  0.08655756     0.08900
H1043       H  0.09305632  0.93220460  0.16885446     0.06900
Br1044     Br  0.04811775  0.92982514  0.11403391    -0.03700
C1045       C  0.24812160  0.04799827  0.95771261    -0.10300
C1046       C  0.25187559  0.08184518  0.98160634     0.05900
C1047       C  0.22331360  0.08442016  0.00337475    -0.04100
C1048       C  0.19344871  0.05043751  0.00256181    -0.08500
C1049       C  0.19165524  0.01278061  0.98038364     0.05000
C1050       C  0.21849474  0.01379695  0.95675800    -0.03500
Br1051     Br  0.21846723  0.96806395  0.92319330    -0.03200
H1052       H  0.27020089  0.04505707  0.94110368     0.08900
H1053       H  0.17320803  0.05122186  0.02067038     0.06900
Br1054     Br  0.22638110  0.13063253  0.03643924    -0.03700
C1055       C  0.32455260  0.68670492  0.63828566    -0.10300
C1056       C  0.32866048  0.64775895  0.65903254     0.05900
C1057       C  0.32919690  0.59839839  0.64829393    -0.04100
C1058       C  0.32940685  0.58932729  0.61728789    -0.08500
C1059       C  0.32913808  0.62862797  0.59641383     0.05000
C1060       C  0.32467475  0.67770897  0.60727543    -0.03500
Br1061     Br  0.32192187  0.73464605  0.58158707    -0.03200
H1062       H  0.32307474  0.72492332  0.64624096     0.08900
H1063       H  0.33160839  0.55109863  0.60949518     0.06900
Br1064     Br  0.33370942  0.54218320  0.67436188    -0.03700
C1065       C  0.45252416  0.53189903  0.71906142    -0.10300
C1066       C  0.44315142  0.54895244  0.74809640     0.05900
C1067       C  0.46195473  0.52803467  0.77285563    -0.04100
C1068       C  0.49064104  0.49334557  0.76838570    -0.08500
C1069       C  0.50201936  0.47913473  0.73939819     0.05000
C1070       C  0.48192751  0.49773011  0.71456101    -0.03500
Br1071     Br  0.49374724  0.47770469  0.67414145    -0.03200
H1072       H  0.43830736  0.54710700  0.69974189     0.08900
H1073       H  0.50570761  0.47973881  0.78774707     0.06900
Br1074     Br  0.45009836  0.54577173  0.81355325    -0.03700
C1075       C  0.22167492  0.72587369  0.73976722    -0.10300
C1076       C  0.24748159  0.72218096  0.76327559     0.05900
C1077       C  0.24048659  0.74826140  0.79026612    -0.04100
C1078       C  0.21088795  0.78254288  0.79181900    -0.08500
C1079       C  0.18697216  0.78997271  0.76707100     0.05000
C1080       C  0.19116053  0.75826384  0.74164198    -0.03500
Br1081     Br  0.15879617  0.75959491  0.70726513    -0.03200
H1082       H  0.22667245  0.70568025  0.71893426     0.08900
H1083       H  0.20762515  0.80503538  0.81199553     0.06900
Br1084     Br  0.27300178  0.74190780  0.82428317    -0.03700
C1085       C  0.41790721  0.87003653  0.79210792    -0.10300
C1086       C  0.38223888  0.84894226  0.78857817     0.05900
C1087       C  0.35082641  0.88079331  0.79001487    -0.04100
C1088       C  0.35590922  0.93236295  0.79020753    -0.08500
C1089       C  0.39174679  0.95312627  0.78806664     0.05000
C1090       C  0.42287776  0.92168193  0.79181958    -0.03500
Br1091     Br  0.47288989  0.94658039  0.79520085    -0.03200
H1092       H  0.44242875  0.84650214  0.79232817     0.08900
H1093       H  0.33149900  0.95591804  0.78848315     0.06900
Br1094     Br  0.30013551  0.85767603  0.78846950    -0.03700
C1095       C  0.43655112  0.70854383  0.11735519    -0.10300
C1096       C  0.44201057  0.67022249  0.09582554     0.05900
C1097       C  0.45036975  0.62190736  0.10607493    -0.04100
C1098       C  0.44981684  0.61229575  0.13688895    -0.08500
C1099       C  0.44139743  0.64979128  0.15808307     0.05000
C1100       C  0.43613927  0.69878584  0.14816461    -0.03500
Br1101     Br  0.42425916  0.75281949  0.17505502    -0.03200
H1102       H  0.43091026  0.74624688  0.11024760     0.08900
H1103       H  0.45454420  0.57452351  0.14433946     0.06900
Br1104     Br  0.46040494  0.56619476  0.07989240    -0.03700
C1105       C  0.28452150  0.51513849  0.04227632    -0.10300
C1106       C  0.26751495  0.49352377  0.01664535     0.05900
C1107       C  0.28152604  0.50682592  0.98808554    -0.04100
C1108       C  0.31054124  0.54173283  0.98559624    -0.08500
C1109       C  0.32690393  0.56404260  0.01105145     0.05000
C1110       C  0.31412303  0.54966527  0.03968028    -0.03500
Br1111     Br  0.33370504  0.57992225  0.07558537    -0.03200
H1112       H  0.27388512  0.50644429  0.06442708     0.08900
H1113       H  0.31959094  0.55292608  0.96339582     0.06900
Br1114     Br  0.25954076  0.48353345  0.95127955    -0.03700
C1115       C  0.28253471  0.76168866  0.05834237    -0.10300
C1116       C  0.31168918  0.79137037  0.04766655     0.05900
C1117       C  0.30496163  0.84197206  0.04173228    -0.04100
C1118       C  0.26814187  0.85809998  0.03900590    -0.08500
C1119       C  0.23840908  0.82484250  0.04361349     0.05000
C1120       C  0.24582416  0.77799123  0.05659542    -0.03500
Br1121     Br  0.20817133  0.73055915  0.06791741    -0.03200
H1122       H  0.28786865  0.72332059  0.06434334     0.08900
H1123       H  0.26284323  0.89537458  0.03095191     0.06900
Br1124     Br  0.34418406  0.88863629  0.03315313    -0.03700
C1125       C  0.36028840  0.61523509  0.89757135    -0.10300
C1126       C  0.39516519  0.63028035  0.90910808     0.05900
C1127       C  0.42451836  0.64044636  0.88934605    -0.04100
C1128       C  0.41759886  0.64119515  0.85858621    -0.08500
C1129       C  0.38169342  0.63149523  0.84699792     0.05000
C1130       C  0.35348187  0.61509913  0.86651617    -0.03500
Br1131     Br  0.30439880  0.59870309  0.85243181    -0.03200
H1132       H  0.33745915  0.60755459  0.91286225     0.08900
H1133       H  0.43988962  0.65288218  0.84371727     0.06900
Br1134     Br  0.47276932  0.66099386  0.90353119    -0.03700
C1135       C  0.52713412  0.76238444  0.96198350    -0.10300
C1136       C  0.52562994  0.72934492  0.98610681     0.05900
C1137       C  0.55582515  0.72787083  0.00621587    -0.04100
C1138       C  0.58545928  0.76172002  0.00342924    -0.08500
C1139       C  0.58528966  0.79857511  0.98109354     0.05000
C1140       C  0.55633262  0.79692498  0.95926442    -0.03500
Br1141     Br  0.55232654  0.84268929  0.92643190    -0.03200
H1142       H  0.50358060  0.76466092  0.94678795     0.08900
H1143       H  0.60723355  0.76147169  0.02028873     0.06900
Br1144     Br  0.55537835  0.68381838  0.03989024    -0.03700
C1145       C  0.35859199  0.93192955  0.95241069    -0.10300
C1146       C  0.39166791  0.95986340  0.95498940     0.05900
C1147       C  0.42608881  0.93461979  0.95235912    -0.04100
C1148       C  0.42667418  0.88251856  0.95377845    -0.08500
C1149       C  0.39344216  0.85497884  0.95705542     0.05000
C1150       C  0.35903907  0.88001385  0.95346358    -0.03500
Br1151     Br  0.31102361  0.84781183  0.95451660    -0.03200
H1152       H  0.33179251  0.95058243  0.95273143     0.08900
H1153       H  0.45341250  0.86381395  0.95471902     0.06900
Br1154     Br  0.47325706  0.96839113  0.94921510    -0.03700
C1155       C  0.58655417  0.84749115  0.39017407    -0.10300
C1156       C  0.58628086  0.89043612  0.40861289     0.05900
C1157       C  0.58045850  0.93706267  0.39509453    -0.04100
C1158       C  0.57858040  0.94024034  0.36371358    -0.08500
C1159       C  0.58275035  0.89782893  0.34518320     0.05000
C1160       C  0.58507943  0.85073991  0.35879348    -0.03500
Br1161     Br  0.59245253  0.79031451  0.33610691    -0.03200
H1162       H  0.59069394  0.81125574  0.40014037     0.08900
H1163       H  0.57693160  0.97673833  0.35362860     0.06900
Br1164     Br  0.58051853  0.99855404  0.41747486    -0.03700
C1165       C  0.69621839  0.02899177  0.47265526    -0.10300
C1166       C  0.68523841  0.99893459  0.49682865     0.05900
C1167       C  0.70500157  0.00259324  0.52397858    -0.04100
C1168       C  0.73513118  0.03520110  0.52658808    -0.08500
C1169       C  0.74847669  0.06255573  0.50183907     0.05000
C1170       C  0.72752158  0.06074617  0.47497556    -0.03500
Br1171     Br  0.74167891  0.09692899  0.44009869    -0.03200
H1172       H  0.68148473  0.02598126  0.45146317     0.08900
H1173       H  0.75034186  0.03554757  0.54763275     0.06900
Br1174     Br  0.69712934  0.95685292  0.55624774    -0.03700
C1175       C  0.77549203  0.75264574  0.56274663    -0.10300
C1176       C  0.80479634  0.78275615  0.55261139     0.05900
C1177       C  0.79715195  0.83233275  0.54471086    -0.04100
C1178       C  0.76025341  0.84642019  0.53979072    -0.08500
C1179       C  0.73096478  0.81219956  0.54369816     0.05000
C1180       C  0.73854542  0.76655376  0.55813668    -0.03500
Br1181     Br  0.70145016  0.71738181  0.56791541    -0.03200
H1182       H  0.78127639  0.71510129  0.57015584     0.08900
H1183       H  0.75486127  0.88280768  0.53046594     0.06900
Br1184     Br  0.83545266  0.88003122  0.53589391    -0.03700
C1185       C  0.48600996  0.78169312  0.54001199    -0.10300
C1186       C  0.50199107  0.80303268  0.51416091     0.05900
C1187       C  0.48717023  0.78984033  0.48576793    -0.04100
C1188       C  0.45914887  0.75345973  0.48361996    -0.08500
C1189       C  0.44440592  0.73071916  0.50935071     0.05000
C1190       C  0.45708282  0.74645211  0.53782184    -0.03500
Br1191     Br  0.43811377  0.71773302  0.57409573    -0.03200
H1192       H  0.49704912  0.79110512  0.56201265     0.08900
H1193       H  0.44951623  0.74172902  0.46156831     0.06900
Br1194     Br  0.50645958  0.81603765  0.44883898    -0.03700
C1195       C  0.67184174  0.67464843  0.48290058    -0.10300
C1196       C  0.63718725  0.69629066  0.47667834     0.05900
C1197       C  0.60671363  0.66542810  0.46933580    -0.04100
C1198       C  0.61026842  0.61368109  0.47127901    -0.08500
C1199       C  0.64385399  0.59209282  0.48092398     0.05000
C1200       C  0.67543899  0.62302906  0.48518108    -0.03500
Br1201     Br  0.72396285  0.59775341  0.49517083    -0.03200
H1202       H  0.69559832  0.69810949  0.48832840     0.08900
H1203       H  0.58592593  0.59060110  0.46722125     0.06900
Br1204     Br  0.55952388  0.69243968  0.45750450    -0.03700
C1205       C  0.69496994  0.85707544  0.86377355    -0.10300
C1206       C  0.69174330  0.89918593  0.84537447     0.05900
C1207       C  0.69265221  0.94670488  0.85898777    -0.04100
C1208       C  0.69274007  0.95105294  0.89046523    -0.08500
C1209       C  0.69130324  0.90865681  0.90891422     0.05000
C1210       C  0.69434533  0.86123106  0.89517882    -0.03500
Br1211     Br  0.69097243  0.80024329  0.91726937    -0.03200
H1212       H  0.69407623  0.82022286  0.85363488     0.08900
H1213       H  0.69062481  0.98784638  0.90052980     0.06900
Br1214     Br  0.68733542  0.00644457  0.83608347    -0.03700
C1215       C  0.79401560  0.81468616  0.76223100    -0.10300
C1216       C  0.77190454  0.81018934  0.73629777     0.05900
C1217       C  0.78411454  0.77823150  0.71280504    -0.04100
C1218       C  0.81542071  0.74776304  0.71684518    -0.08500
C1219       C  0.83511587  0.74859587  0.74402010     0.05000
C1220       C  0.82527990  0.78397120  0.76624759    -0.03500
Br1221     Br  0.85244766  0.78912469  0.80322406    -0.03200
H1222       H  0.78526715  0.83906662  0.78045550     0.08900
H1223       H  0.82285799  0.72096795  0.69948509     0.06900
Br1224     Br  0.75790962  0.77300103  0.67524937    -0.03700
C1225       C  0.66287067  0.66836666  0.79554250    -0.10300
C1226       C  0.63084877  0.69743329  0.79156880     0.05900
C1227       C  0.59611650  0.67331726  0.78747127    -0.04100
C1228       C  0.59491654  0.62150874  0.78358807    -0.08500
C1229       C  0.62770976  0.59296662  0.78426404     0.05000
C1230       C  0.66174390  0.61670971  0.79200537    -0.03500
Br1231     Br  0.70903782  0.58301993  0.79387098    -0.03200
H1232       H  0.68967691  0.68639917  0.79880862     0.08900
H1233       H  0.56847390  0.60378279  0.77838155     0.06900
Br1234     Br  0.55002890  0.70889593  0.78315666    -0.03700
C1235       C  0.53462830  0.75414843  0.70697345    -0.10300
C1236       C  0.53977822  0.80264206  0.71835275     0.05900
C1237       C  0.50952940  0.83622126  0.71763817    -0.04100
C1238       C  0.47355356  0.81781855  0.71244677    -0.08500
C1239       C  0.46803025  0.76680862  0.70695602     0.05000
C1240       C  0.49901437  0.73650819  0.70053724    -0.03500
Br1241     Br  0.49349105  0.66846641  0.68752966    -0.03200
H1242       H  0.55778262  0.72837283  0.70547186     0.08900
H1243       H  0.44987297  0.84218064  0.71613661     0.06900
Br1244     Br  0.51540684  0.90653968  0.72435500    -0.03700
C1245       C  0.64026923  0.93329412  0.64356508    -0.10300
C1246       C  0.63609342  0.88680935  0.65775030     0.05900
C1247       C  0.61102747  0.85170307  0.64415520    -0.04100
C1248       C  0.59178475  0.86347347  0.61816344    -0.08500
C1249       C  0.60079649  0.90561042  0.60169415     0.05000
C1250       C  0.62279908  0.94268084  0.61564154    -0.03500
Br1251     Br  0.62612825  0.00753501  0.59844761    -0.03200
H1252       H  0.65752614  0.96189123  0.65378962     0.08900
H1253       H  0.57467073  0.83478054  0.60766894     0.06900
Br1254     Br  0.60409633  0.78304808  0.65534442    -0.03700
C1255       C  0.56596620  0.01927031  0.78840616    -0.10300
C1256       C  0.58673794  0.00302648  0.76320991     0.05900
C1257       C  0.58012228  0.02617637  0.73528021    -0.04100
C1258       C  0.55122296  0.06051340  0.73244766    -0.08500
C1259       C  0.52820524  0.07289459  0.75682106     0.05000
C1260       C  0.53710515  0.05438565  0.78543270    -0.03500
Br1261     Br  0.50799621  0.07174481  0.82021378    -0.03200
H1262       H  0.57093502  0.00284905  0.81017955     0.08900
H1263       H  0.54448168  0.07434035  0.71028806     0.06900
Br1264     Br  0.60500257  0.00795038  0.69866810    -0.03700
C1265       C  0.07767670  0.35176199  0.38945583    -0.10300
C1266       C  0.08534344  0.39265561  0.40846070     0.05900
C1267       C  0.08961180  0.44007295  0.39570455    -0.04100
C1268       C  0.08969414  0.44502599  0.36446310    -0.08500
C1269       C  0.08622610  0.40332720  0.34522221     0.05000
C1270       C  0.07767631  0.35671028  0.35805688    -0.03500
Br1271     Br  0.07003056  0.29731676  0.33447636     0.06400
H1272       H  0.07421949  0.31508927  0.39903431     0.08900
H1273       H  0.09562910  0.48134662  0.35516858     0.06900
Br1274     Br  0.10216467  0.49798225  0.41931673    -0.03700
C1275       C  0.96254362  0.24190256  0.54018398    -0.10300
C1276       C  0.94401297  0.23993781  0.51250187     0.05900
C1277       C  0.95451276  0.27329344  0.48980878    -0.04100
C1278       C  0.98453271  0.30603256  0.49434552    -0.08500
C1279       C  0.00519933  0.30555294  0.52120459     0.05000
C1280       C  0.99287287  0.27424216  0.54477034    -0.03500
Br1281     Br  0.01657584  0.27241611  0.58349399    -0.03200
H1282       H  0.95469904  0.21624073  0.55776515     0.08900
H1283       H  0.99328018  0.32947171  0.47593453     0.06900
Br1284     Br  0.93005226  0.27305560  0.45150599    -0.03700
C1285       C  0.17175074  0.11717778  0.47279607    -0.10300
C1286       C  0.13963883  0.08837199  0.47733705     0.05900
C1287       C  0.10432451  0.11170199  0.47729061    -0.04100
C1288       C  0.10215840  0.16343554  0.47600456    -0.08500
C1289       C  0.13448587  0.19267478  0.47413107     0.05000
C1290       C  0.16948492  0.16895444  0.47061421    -0.03500
Br1291     Br  0.21578658  0.20443258  0.46608729    -0.03200
H1292       H  0.19891070  0.09948911  0.47225799     0.08900
H1293       H  0.07512417  0.18111402  0.47836097     0.06900
Br1294     Br  0.05807802  0.07647416  0.48265551    -0.03700
C1295       C  0.21036254  0.50549317  0.46156439    -0.10300
C1296       C  0.18551777  0.50013623  0.48592906     0.05900
C1297       C  0.18880250  0.53369532  0.51057359    -0.04100
C1298       C  0.21963042  0.56567335  0.51236598    -0.08500
C1299       C  0.24665533  0.56650103  0.48958936     0.05000
C1300       C  0.24048722  0.53877810  0.46311691    -0.03500
Br1301     Br  0.27534753  0.54009340  0.43033224    -0.03200
H1302       H  0.20780088  0.48150358  0.44195306     0.08900
H1303       H  0.22411824  0.58718023  0.53279296     0.06900
Br1304     Br  0.15504010  0.53505869  0.54418757    -0.03700
C1305       C  0.18725367  0.44642765  0.85692672    -0.10300
C1306       C  0.18905667  0.39825303  0.84465578     0.05900
C1307       C  0.19359867  0.35759821  0.86421271    -0.04100
C1308       C  0.19210468  0.36505439  0.89542130    -0.08500
C1309       C  0.18554871  0.41260188  0.90769028     0.05000
C1310       C  0.18524751  0.45393735  0.88810872    -0.03500
Br1311     Br  0.18004927  0.52146827  0.90222234    -0.03200
H1312       H  0.18401557  0.47806817  0.84222940     0.08900
H1313       H  0.19305058  0.33295816  0.90996279     0.06900
Br1314     Br  0.19951460  0.29065891  0.84934288    -0.03700
C1315       C  0.03746613  0.55313885  0.78796433    -0.10300
C1316       C  0.02817701  0.57238757  0.75980089     0.05900
C1317       C  0.05192488  0.56255512  0.73513387    -0.04100
C1318       C  0.08260981  0.53089867  0.73835839    -0.08500
C1319       C  0.08958508  0.50702478  0.76572051     0.05000
C1320       C  0.06764000  0.52029575  0.79108521    -0.03500
Br1321     Br  0.07628294  0.49329100  0.83029048    -0.03200
H1322       H  0.01930349  0.56010303  0.80704312     0.08900
H1323       H  0.09921318  0.52183680  0.71868913     0.06900
Br1324     Br  0.04157490  0.58810140  0.69582919    -0.03700
C1325       C  0.32445645  0.27869061  0.76257182    -0.10300
C1326       C  0.33439829  0.24750026  0.73836846     0.05900
C1327       C  0.31450766  0.25119998  0.71128199    -0.04100
C1328       C  0.28346065  0.28292285  0.70947811    -0.08500
C1329       C  0.27189542  0.31222906  0.73429171     0.05000
C1330       C  0.29402799  0.31145258  0.76065415    -0.03500
Br1331     Br  0.28242037  0.35007085  0.79600378    -0.03200
H1332       H  0.33942866  0.27584093  0.78363661     0.08900
H1333       H  0.26729777  0.28300911  0.68891697     0.06900
Br1334     Br  0.32670616  0.20993801  0.67721839    -0.03700
C1335       C  0.16794326  0.17330589  0.78385347    -0.10300
C1336       C  0.13552538  0.20144758  0.77960338     0.05900
C1337       C  0.10052345  0.17718403  0.77954440    -0.04100
C1338       C  0.09899028  0.12521454  0.78026620    -0.08500
C1339       C  0.13173136  0.09670707  0.78156900     0.05000
C1340       C  0.16638450  0.12137940  0.78529111    -0.03500
Br1341     Br  0.21327066  0.08719392  0.78864807    -0.03200
H1342       H  0.19490103  0.19168366  0.78437494     0.08900
H1343       H  0.07217653  0.10687197  0.77779180     0.06900
Br1344     Br  0.05412537  0.21181958  0.77436887    -0.03700
C1345       C  0.17935959  0.42224230  0.63313972    -0.10300
C1346       C  0.15244726  0.42186499  0.65591721     0.05900
C1347       C  0.11450314  0.42734360  0.64795622    -0.04100
C1348       C  0.10352398  0.42596294  0.61777285    -0.08500
C1349       C  0.13011377  0.41926989  0.59516127     0.05000
C1350       C  0.16841053  0.42125780  0.60288030    -0.03500
Br1351     Br  0.20670407  0.41746297  0.57283190    -0.03200
H1352       H  0.20860242  0.41815956  0.63874666     0.08900
H1353       H  0.07407973  0.42468272  0.61228517     0.06900
Br1354     Br  0.07617626  0.43042049  0.67771717    -0.03700
C1355       C  0.44660595  0.09887777  0.63090098    -0.10300
C1356       C  0.44476266  0.13928764  0.65137158     0.05900
C1357       C  0.44587250  0.18796634  0.63995009    -0.04100
C1358       C  0.44628203  0.19513584  0.60879559    -0.08500
C1359       C  0.44536534  0.15467057  0.58829433     0.05000
C1360       C  0.44682952  0.10601717  0.59975044    -0.03500
Br1361     Br  0.44539462  0.04759584  0.57454261    -0.03200
H1362       H  0.44629083  0.06106565  0.63917791     0.08900
H1363       H  0.44567798  0.23295366  0.60054540     0.06900
Br1364     Br  0.44299742  0.24616582  0.66523532    -0.03700
C1365       C  0.29439412  0.97380430  0.49041275    -0.10300
C1366       C  0.27530697  0.97512009  0.51809612     0.05900
C1367       C  0.28940354  0.00696016  0.54112983    -0.04100
C1368       C  0.31976282  0.03878068  0.53539469    -0.08500
C1369       C  0.33667500  0.04004267  0.50698955     0.05000
C1370       C  0.32440490  0.00619969  0.48469210    -0.03500
Br1371     Br  0.34639408  0.00540366  0.44536583    -0.03200
H1372       H  0.28430332  0.95008173  0.47233222     0.08900
H1373       H  0.32873638  0.06483634  0.55269249     0.06900
Br1374     Br  0.26790838  0.01040445  0.58070732    -0.03700
C1375       C  0.53973541  0.24172837  0.45847125    -0.10300
C1376       C  0.52981193  0.21906614  0.48562882     0.05900
C1377       C  0.55322137  0.22592793  0.51080449    -0.04100
C1378       C  0.58389008  0.25817921  0.50936620    -0.08500
C1379       C  0.59149325  0.28536204  0.48325424     0.05000
C1380       C  0.57032851  0.27462455  0.45706458    -0.03500
Br1381     Br  0.58110880  0.30470405  0.41902003    -0.03200
H1382       H  0.52192810  0.23712006  0.43897489     0.08900
H1383       H  0.59992365  0.26506529  0.52961210     0.06900
Br1384     Br  0.54187430  0.19615876  0.54883152    -0.03700
C1385       C  0.34914929  0.35484010  0.45413300    -0.10300
C1386       C  0.38483881  0.33420231  0.45137503     0.05900
C1387       C  0.41519189  0.36600736  0.44542774    -0.04100
C1388       C  0.41083515  0.41748838  0.44892553    -0.08500
C1389       C  0.37637667  0.43767557  0.45810810     0.05000
C1390       C  0.34459230  0.40604671  0.45797594    -0.03500
Br1391     Br  0.29465912  0.42733878  0.46701084    -0.03200
H1392       H  0.32515444  0.33088665  0.45751489     0.08900
H1393       H  0.43530108  0.44103279  0.44714609     0.06900
Br1394     Br  0.46347844  0.34068665  0.43455140    -0.03700
C1395       C  0.27914966  0.23404745  0.54871670    -0.10300
C1396       C  0.30904379  0.26498571  0.54098214     0.05900
C1397       C  0.30250364  0.31611018  0.53659940    -0.04100
C1398       C  0.26596383  0.33234663  0.53244601    -0.08500
C1399       C  0.23598373  0.29884982  0.53459022     0.05000
C1400       C  0.24260254  0.25032888  0.54558459    -0.03500
Br1401     Br  0.20451457  0.20099536  0.55240106    -0.03200
H1402       H  0.28410268  0.19510989  0.55351771     0.08900
H1403       H  0.26117807  0.37056679  0.52594542     0.06900
Br1404     Br  0.34189191  0.36437678  0.53327485    -0.03700
C1405       C  0.32403818  0.10526552  0.10772174    -0.10300
C1406       C  0.32698677  0.14622567  0.08821465     0.05900
C1407       C  0.32504027  0.19463355  0.10035299    -0.04100
C1408       C  0.32480970  0.20100732  0.13153697    -0.08500
C1409       C  0.32672992  0.15996540  0.15106577     0.05000
C1410       C  0.32404532  0.11163525  0.13889717    -0.03500
Br1411     Br  0.32451995  0.05277615  0.16303135    -0.03200
H1412       H  0.32414240  0.06763558  0.09869812     0.08900
H1413       H  0.32541273  0.23862331  0.14056682     0.06900
Br1414     Br  0.32674277  0.25344873  0.07617519    -0.03700
C1415       C  0.23884646  0.24419171  0.28442426    -0.10300
C1416       C  0.24634043  0.22383043  0.25587740     0.05900
C1417       C  0.22122437  0.23356126  0.23226848    -0.04100
C1418       C  0.19166992  0.26689304  0.23656463    -0.08500
C1419       C  0.18671771  0.29206863  0.26410769     0.05000
C1420       C  0.20945236  0.27831631  0.28868726    -0.03500
Br1421     Br  0.20262212  0.30608841  0.32824136    -0.03200
H1422       H  0.25787885  0.23717574  0.30280278     0.08900
H1423       H  0.17429913  0.27601598  0.21748167     0.06900
Br1424     Br  0.22827734  0.20558321  0.19276416    -0.03700
C1425       C  0.41383435  0.37127540  0.29245652    -0.10300
C1426       C  0.37935812  0.34773713  0.28734063     0.05900
C1427       C  0.34655528  0.37674389  0.28939338    -0.04100
C1428       C  0.34907821  0.42860215  0.28867038    -0.08500
C1429       C  0.38403991  0.45202802  0.28815499     0.05000
C1430       C  0.41603265  0.42327832  0.29400299    -0.03500
Br1431     Br  0.46267791  0.45359346  0.30460607    -0.03200
H1432       H  0.43932350  0.34971308  0.29328227     0.08900
H1433       H  0.32375374  0.45019571  0.28633467     0.06900
Br1434     Br  0.29775863  0.34791300  0.29253608    -0.03700
C1435       C  0.45978816  0.03381798  0.26408073    -0.10300
C1436       C  0.44281075  0.05219110  0.23800694     0.05900
C1437       C  0.45478984  0.03358799  0.20985052    -0.04100
C1438       C  0.48466542  0.99948524  0.20825243    -0.08500
C1439       C  0.50259346  0.98259005  0.23444756     0.05000
C1440       C  0.48915832  0.99952210  0.26258843    -0.03500
Br1441     Br  0.51307486  0.98301576  0.29975465    -0.03200
H1442       H  0.45129838  0.04821352  0.28589189     0.08900
H1443       H  0.49492728  0.98767604  0.18640562     0.06900
Br1444     Br  0.43402570  0.05756703  0.17303694    -0.03700
C1445       C  0.42018534  0.13246514  0.34936377    -0.10300
C1446       C  0.38378770  0.12726968  0.33767518     0.05900
C1447       C  0.35483354  0.11240780  0.35689566    -0.04100
C1448       C  0.36183104  0.10862616  0.38779948    -0.08500
C1449       C  0.39746020  0.11903167  0.39983438     0.05000
C1450       C  0.42714510  0.12867733  0.38017705    -0.03500
Br1451     Br  0.47607288  0.14501511  0.39474690    -0.03200
H1452       H  0.44292153  0.14323702  0.33467877     0.08900
H1453       H  0.33858542  0.10184287  0.40283760     0.06900
Br1454     Br  0.30459831  0.10401136  0.34284346    -0.03700
C1455       C  0.69363854  0.43588596  0.36097518    -0.10300
C1456       C  0.68513991  0.38928657  0.34809330     0.05900
C1457       C  0.68441094  0.34704822  0.36700242    -0.04100
C1458       C  0.68829091  0.35287206  0.39817300    -0.08500
C1459       C  0.69213022  0.40023758  0.41125057     0.05000
C1460       C  0.69680310  0.44168383  0.39225443    -0.03500
Br1461     Br  0.70497758  0.50760303  0.40812677    -0.03200
H1462       H  0.69489678  0.46862532  0.34697227     0.08900
H1463       H  0.68465256  0.32067665  0.41239107     0.06900
Br1464     Br  0.67590623  0.28045272  0.35221923    -0.03700
C1465       C  0.57963869  0.53371534  0.24241830    -0.10300
C1466       C  0.58401327  0.50763785  0.26941399     0.05900
C1467       C  0.55922041  0.51834581  0.29345491    -0.04100
C1468       C  0.52899239  0.55077931  0.28913822    -0.08500
C1469       C  0.52229019  0.57178477  0.26093621     0.05000
C1470       C  0.54871879  0.56448396  0.23781213    -0.03500
Br1471     Br  0.54210289  0.59257263  0.19863532    -0.03200
H1472       H  0.59858353  0.52697554  0.22383238     0.08900
H1473       H  0.50891306  0.55613402  0.30711416     0.06900
Br1474     Br  0.56418966  0.48855024  0.33230620    -0.03700
C1475       C  0.78534619  0.29333473  0.21419294    -0.10300
C1476       C  0.76661821  0.31238287  0.23973875     0.05900
C1477       C  0.77987118  0.29851324  0.26837501    -0.04100
C1478       C  0.80966083  0.26505704  0.27099837    -0.08500
C1479       C  0.82774117  0.24505115  0.24560195     0.05000
C1480       C  0.81595060  0.26060228  0.21692877    -0.03500
Br1481     Br  0.83851575  0.23472971  0.18092401    -0.03200
H1482       H  0.77548483  0.30285100  0.19197355     0.08900
H1483       H  0.81801320  0.25317879  0.29321546     0.06900
Br1484     Br  0.75601709  0.31918172  0.30498193    -0.03700
C1485       C  0.59819898  0.12417966  0.27713620    -0.10300
C1486       C  0.63113952  0.09602471  0.27592092     0.05900
C1487       C  0.66585963  0.12099221  0.27719789    -0.04100
C1488       C  0.66697843  0.17303179  0.27651833    -0.08500
C1489       C  0.63405955  0.20116164  0.27537462     0.05000
C1490       C  0.59931691  0.17630607  0.27732863    -0.03500
Br1491     Br  0.55225379  0.21054248  0.27682277    -0.03200
H1492       H  0.57136847  0.10548866  0.27643588     0.08900
H1493       H  0.69382790  0.19160106  0.27541796     0.06900
Br1494     Br  0.71289684  0.08675794  0.27624594    -0.03700
C1495       C  0.46886668  0.32903095  0.21272306    -0.10300
C1496       C  0.46514298  0.28016811  0.20191880     0.05900
C1497       C  0.49674292  0.25462163  0.19131939    -0.04100
C1498       C  0.53204549  0.27458357  0.19661435    -0.08500
C1499       C  0.53611670  0.31943474  0.21289074     0.05000
C1500       C  0.50408314  0.34867954  0.21879199    -0.03500
Br1501     Br  0.50537159  0.41322266  0.23766804    -0.03200
H1502       H  0.44450530  0.34938739  0.22044162     0.08900
H1503       H  0.55619873  0.25238193  0.19064374     0.06900
Br1504     Br  0.49308079  0.18964301  0.17318474    -0.03700
C1505       C  0.59643116  0.34971020  0.86217131    -0.10300
C1506       C  0.58813536  0.39536128  0.84879105     0.05900
C1507       C  0.57989454  0.43659319  0.86756098    -0.04100
C1508       C  0.58386572  0.43314941  0.89888414    -0.08500
C1509       C  0.59625892  0.38890973  0.91215443     0.05000
C1510       C  0.60041782  0.34604420  0.89347624    -0.03500
Br1511     Br  0.61250419  0.28142353  0.90893050    -0.03200
H1512       H  0.60274877  0.31762779  0.84811412     0.08900
H1513       H  0.57956413  0.46614320  0.91264142     0.06900
Br1514     Br  0.56501207  0.49925520  0.85103441    -0.03700
C1515       C  0.59844645  0.44481849  0.12357302    -0.10300
C1516       C  0.62470862  0.44305040  0.10037046     0.05900
C1517       C  0.66298025  0.44695488  0.10796046    -0.04100
C1518       C  0.67458027  0.44343740  0.13806317    -0.08500
C1519       C  0.64821572  0.43752282  0.16099906     0.05000
C1520       C  0.61000999  0.44270325  0.15364605    -0.03500
Br1521     Br  0.57220885  0.44093550  0.18380345    -0.03200
H1522       H  0.56897748  0.44208134  0.11836183     0.08900
H1523       H  0.70404479  0.44015842  0.14306907     0.06900
Br1524     Br  0.70051712  0.44997531  0.07734042    -0.03700
C1525       C  0.46166845  0.28127461  0.98459328    -0.10300
C1526       C  0.44528916  0.25680586  0.00900599     0.05900
C1527       C  0.45768863  0.26851929  0.03823690    -0.04100
C1528       C  0.48802352  0.30124872  0.04239273    -0.08500
C1529       C  0.50590991  0.32383013  0.01774509     0.05000
C1530       C  0.49130520  0.31480158  0.98862980    -0.03500
Br1531     Br  0.51325606  0.34142155  0.95278722    -0.03200
H1532       H  0.45254808  0.27224461  0.96196451     0.08900
H1533       H  0.49863503  0.30749384  0.06490883     0.06900
Br1534     Br  0.43624834  0.23720342  0.07277013    -0.03700
C1535       C  0.60800475  0.12562126  0.98044369    -0.10300
C1536       C  0.64322006  0.10291814  0.98164596     0.05900
C1537       C  0.67553241  0.13281368  0.98123238    -0.04100
C1538       C  0.67213717  0.18458949  0.98234157    -0.08500
C1539       C  0.63688018  0.20720893  0.98444751     0.05000
C1540       C  0.60456001  0.17737157  0.98207429    -0.03500
Br1541     Br  0.55505974  0.20476989  0.98197424    -0.03200
H1542       H  0.58292246  0.10299246  0.98047088     0.08900
H1543       H  0.69727131  0.20700235  0.98372048     0.06900
Br1544     Br  0.72485189  0.10488835  0.98023430    -0.03700
C1545       C  0.69461314  0.54518569  0.01675893    -0.10300
C1546       C  0.69098453  0.51474173  0.99109673     0.05900
C1547       C  0.71376723  0.52473304  0.96586706    -0.04100
C1548       C  0.74241964  0.56038344  0.96797689    -0.08500
C1549       C  0.74889265  0.58626556  0.99500715     0.05000
C1550       C  0.72351891  0.58017673  0.01898802    -0.03500
Br1551     Br  0.73000676  0.61489607  0.05657740    -0.03200
H1552       H  0.67691065  0.53898539  0.03613395     0.08900
H1553       H  0.76176587  0.56442781  0.94940883     0.06900
Br1554     Br  0.70771343  0.48975020  0.92834439    -0.03700
C1555       C  0.83452556  0.11137397  0.65051108    -0.10300
C1556       C  0.83235553  0.16128189  0.65940226     0.05900
C1557       C  0.82805239  0.19825249  0.63717752    -0.04100
C1558       C  0.83006942  0.18512753  0.60669663    -0.08500
C1559       C  0.83587714  0.13553947  0.59784729     0.05000
C1560       C  0.83608999  0.09812275  0.62016635    -0.03500
Br1561     Br  0.83818925  0.02789578  0.61144734    -0.03200
H1562       H  0.83678723  0.08250878  0.66726449     0.08900
H1563       H  0.82848788  0.21405738  0.58994231     0.06900
Br1564     Br  0.81881129  0.26709089  0.64679108    -0.03700
C1565       C  0.73945498  0.24648702  0.79130100    -0.10300
C1566       C  0.74668414  0.22213980  0.76393120     0.05900
C1567       C  0.72072913  0.22637863  0.74036878    -0.04100
C1568       C  0.69047111  0.25905822  0.74314430    -0.08500
C1569       C  0.68576974  0.28835310  0.76922469     0.05000
C1570       C  0.70921865  0.27931285  0.79419724    -0.03500
Br1571     Br  0.70244889  0.31202663  0.83243404    -0.03200
H1572       H  0.75921882  0.24348356  0.80961101     0.08900
H1573       H  0.67244529  0.26444943  0.72392720     0.06900
Br1574     Br  0.72788283  0.19168168  0.70288624    -0.03700
C1575       C  0.91894635  0.37253753  0.79993948    -0.10300
C1576       C  0.88353761  0.35044018  0.79683308     0.05900
C1577       C  0.85167685  0.38112407  0.79989473    -0.04100
C1578       C  0.85567746  0.43292703  0.79964200    -0.08500
C1579       C  0.89108063  0.45480672  0.79694616     0.05000
C1580       C  0.92281119  0.42443265  0.80057376    -0.03500
Br1581     Br  0.97186019  0.45197705  0.80566604    -0.03200
H1582       H  0.94388310  0.34980068  0.79939521     0.08900
H1583       H  0.83081068  0.45571556  0.79850817     0.06900
Br1584     Br  0.80182138  0.35510449  0.80221977    -0.03700
C1585       C  0.96405417  0.03659438  0.77079255    -0.10300
C1586       C  0.94508140  0.05508391  0.74567206     0.05900
C1587       C  0.95506631  0.03658809  0.71693261    -0.04100
C1588       C  0.98514498  0.00294774  0.71379572    -0.08500
C1589       C  0.00487656  0.98570765  0.73905040     0.05000
C1590       C  0.99321849  0.00221364  0.76779051    -0.03500
Br1591     Br  0.01888254  0.98417641  0.80380543    -0.03200
H1592       H  0.95696812  0.05043460  0.79305008     0.08900
H1593       H  0.99384256  0.99133181  0.69147841     0.06900
Br1594     Br  0.93072019  0.05927847  0.68123521    -0.03700
C1595       C  0.97152807  0.32799435  0.71747738    -0.10300
C1596       C  0.96648203  0.27780170  0.70979540     0.05900
C1597       C  0.99689162  0.24985379  0.69909118    -0.04100
C1598       C  0.03275260  0.26946309  0.70155522    -0.08500
C1599       C  0.03850516  0.31630950  0.71517157     0.05000
C1600       C  0.00737120  0.34746149  0.72061423    -0.03500
Br1601     Br  0.01102013  0.41486989  0.73513866    -0.03200
H1602       H  0.94801116  0.35021158  0.72502008     0.08900
H1603       H  0.05616454  0.24569078  0.69587698     0.06900
Br1604     Br  0.99115391  0.18258480  0.68480315    -0.03700
C1605       C  0.94993761  0.18782403  0.14828779    -0.10300
C1606       C  0.94381645  0.13858963  0.15715018     0.05900
C1607       C  0.94407990  0.10047137  0.13474562    -0.04100
C1608       C  0.94481151  0.11292825  0.10427352    -0.08500
C1609       C  0.94654214  0.16271624  0.09551499     0.05000
C1610       C  0.95193437  0.19999905  0.11783344    -0.03500
Br1611     Br  0.96233469  0.26827795  0.10822988    -0.03200
H1612       H  0.95174174  0.21731899  0.16501114     0.08900
H1613       H  0.94215275  0.08370986  0.08743809     0.06900
Br1614     Br  0.94410642  0.03056156  0.14370061    -0.03700
C1615       C  0.77618190  0.24696356  0.06535929    -0.10300
C1616       C  0.80654436  0.27785704  0.05852140     0.05900
C1617       C  0.80068040  0.32961848  0.05687869    -0.04100
C1618       C  0.76431951  0.34720260  0.05340446    -0.08500
C1619       C  0.73391938  0.31410195  0.05349638     0.05000
C1620       C  0.73978286  0.26453628  0.06286777    -0.03500
Br1621     Br  0.70068425  0.21602146  0.06749810    -0.03200
H1622       H  0.78052781  0.20740487  0.06836988     0.08900
H1623       H  0.76018008  0.38604124  0.04805396     0.06900
Br1624     Br  0.84076028  0.37711136  0.05483550    -0.03700
C1625       C  0.90941655  0.12230242  0.86033251    -0.10300
C1626       C  0.87428988  0.13083513  0.84732225     0.05900
C1627       C  0.84307249  0.13742098  0.86593573    -0.04100
C1628       C  0.84804205  0.14090185  0.89706527    -0.08500
C1629       C  0.88386981  0.13751350  0.90998239     0.05000
C1630       C  0.91441519  0.12524973  0.89148917    -0.03500
Br1631     Br  0.96416957  0.11930393  0.90688311    -0.03200
H1632       H  0.93366895  0.11751219  0.84599683     0.08900
H1633       H  0.82408988  0.14928466  0.91112528     0.06900
Br1634     Br  0.79425065  0.14828709  0.84960105    -0.03700
C1635       C  0.77924153  0.01953949  0.04529660    -0.10300
C1636       C  0.76894597  0.98745916  0.02136073     0.05900
C1637       C  0.79063769  0.98886743  0.99465038    -0.04100
C1638       C  0.81974960  0.02368873  0.99183367    -0.08500
C1639       C  0.82845674  0.05711873  0.01520837     0.05000
C1640       C  0.80854867  0.05401032  0.04236784    -0.03500
Br1641     Br  0.81840227  0.09934753  0.07501439    -0.03200
H1642       H  0.76323854  0.01961443  0.06597601     0.08900
H1643       H  0.83448824  0.02641911  0.97061597     0.06900
Br1644     Br  0.78001552  0.94861978  0.95973890    -0.03700
C1645       C  0.05667726  0.29682977  0.96166276    -0.10300
C1646       C  0.08411578  0.29713769  0.98445057     0.05900
C1647       C  0.08144856  0.26064707  0.00716736    -0.04100
C1648       C  0.04994526  0.22948733  0.00853896    -0.08500
C1649       C  0.02108980  0.23281530  0.98736079     0.05000
C1650       C  0.02548624  0.26525089  0.96302015    -0.03500
Br1651     Br  0.98712007  0.27217640  0.93328881    -0.03200
H1652       H  0.05811172  0.32355705  0.94361564     0.08900
H1653       H  0.04659695  0.20509279  0.02762505     0.06900
Br1654     Br  0.11727956  0.25419314  0.03894144    -0.03700
C1655       C  0.91263662  0.38149996  0.95932453    -0.10300
C1656       C  0.87997984  0.35482937  0.96636998     0.05900
C1657       C  0.84572745  0.38075156  0.96741897    -0.04100
C1658       C  0.84584721  0.43270028  0.96645803    -0.08500
C1659       C  0.87947293  0.45976555  0.96467303     0.05000
C1660       C  0.91264820  0.43352666  0.95808464    -0.03500
Br1661     Br  0.95953165  0.46552290  0.94986761    -0.03200
H1662       H  0.93897186  0.36207949  0.95708253     0.08900
H1663       H  0.81966384  0.45202058  0.97004846     0.06900
Br1664     Br  0.79825786  0.34934019  0.97445906    -0.03700
loop_ 
_geom_bond_atom_site_label_1 
_geom_bond_atom_site_label_2 
_geom_bond_distance 
_geom_bond_site_symmetry_2 
_ccdc_geom_bond_type 
O1           C16   1.260       .  A
O1           Al9   1.884   1_556  S
C2           O12   1.263       .  A
C2            O3   1.259   1_554  A
C2         C1639   1.481       .  S
O3           Al5   1.909       .  S
O4            C6   1.258       .  A
O4           Al5   1.880   1_554  S
Al5          O13   1.861       .  S
Al5          O15   1.941       .  S
Al5          O14   1.773   1_556  S
C6           O19   1.260       .  A
C6         C1616   1.471       .  S
O7           C17   1.256       .  A
O7           Al9   1.853       .  S
O8           C21   1.264       .  A
O8          Al18   1.936   1_556  S
Al9          O22   1.895       .  S
Al9          O19   1.924       .  S
Al9          O14   1.782       .  S
O10          C17   1.275       .  A
O10         Al18   1.962       .  S
O11          C20   1.272       .  A
O11         Al18   1.953   1_556  S
O12         Al18   1.927       .  S
O13          C20   1.258       .  A
O14         Al18   1.779       .  S
O15          C16   1.267       .  A
C16        C1656   1.482       .  S
C17        C1609   1.478       .  S
C20        C1629   1.477       .  S
C21          O22   1.256   1_556  A
C21        C1649   1.477   1_655  S
O23          C38   1.258       .  A
O23         Al31   1.886       .  S
C24          O34   1.265       .  A
C24          O25   1.261       .  A
C24        C1586   1.494       .  S
O25         Al27   1.916       .  S
O26          C28   1.257       .  A
O26         Al27   1.874       .  S
Al27         O35   1.856       .  S
Al27         O37   1.949       .  S
Al27         O36   1.771       .  S
C28          O41   1.262       .  A
C28        C1596   1.458       .  S
O29          C39   1.256       .  A
O29         Al31   1.857       .  S
O30          C43   1.263       .  A
O30         Al40   1.929       .  S
Al31         O44   1.892       .  S
Al31         O41   1.919       .  S
Al31         O36   1.780       .  S
O32          C39   1.273       .  A
O32         Al40   1.948       .  S
O33          C42   1.272       .  A
O33         Al40   1.954       .  S
O34         Al40   1.938       .  S
O35          C42   1.258       .  A
O36         Al40   1.778       .  S
O37          C38   1.269       .  A
C38        C1576   1.486       .  S
C39        C1556   1.475       .  S
C42        C1626   1.466       .  S
C43          O44   1.257       .  A
C43        C1566   1.472       .  S
O45          C60   1.262       .  A
O45         Al53   1.902   1_554  S
C46          O56   1.257       .  A
C46          O47   1.257       .  A
C46        C1529   1.494       .  S
O47         Al49   1.916       .  S
O48          C50   1.261   1_554  A
O48         Al49   1.887       .  S
Al49         O57   1.850       .  S
Al49         O59   1.907       .  S
Al49         O58   1.786       .  S
C50          O63   1.267       .  A
C50        C1539   1.473       .  S
O51          C61   1.259       .  A
O51         Al53   1.877       .  S
O52          C65   1.257   1_554  A
O52         Al62   1.901       .  S
Al53         O66   1.915       .  S
Al53         O63   1.929       .  S
Al53         O58   1.777   1_556  S
O54          C61   1.275       .  A
O54         Al62   1.960   1_556  S
O55          C64   1.277       .  A
O55         Al62   1.978       .  S
O56         Al62   1.912       .  S
O57          C64   1.254       .  A
O58         Al62   1.780       .  S
O59          C60   1.259       .  A
C60        C1619   1.475       .  S
C61        C1509   1.495       .  S
C64        C1516   1.480       .  S
C65          O66   1.260       .  A
C65        C1546   1.486       .  S
O67          C82   1.258       .  A
O67         Al75   1.885       .  S
C68          O78   1.263       .  A
C68          O69   1.261       .  A
C68        C1476   1.498       .  S
O69         Al71   1.927       .  S
O70          C72   1.262       .  A
O70         Al71   1.894       .  S
Al71         O79   1.864       .  S
Al71         O81   1.912       .  S
Al71         O80   1.781       .  S
C72          O85   1.264       .  A
C72        C1489   1.480       .  S
O73          C83   1.258       .  A
O73         Al75   1.873       .  S
O74          C87   1.261       .  A
O74         Al84   1.909       .  S
Al75         O88   1.922       .  S
Al75         O85   1.932       .  S
Al75         O80   1.779       .  S
O76          C83   1.274       .  A
O76         Al84   1.960       .  S
O77          C86   1.274       .  A
O77         Al84   1.974       .  S
O78         Al84   1.923       .  S
O79          C86   1.254       .  A
O80         Al84   1.779       .  S
O81          C82   1.264       .  A
C82        C1499   1.475       .  S
C83        C1456   1.489       .  S
C86        C1519   1.487       .  S
C87          O88   1.261       .  A
C87        C1466   1.491       .  S
O89         C104   1.259       .  A
O89         Al97   1.876       .  S
C90         O100   1.267       .  A
C90          O91   1.262       .  A
C90        C1436   1.489       .  S
O91         Al93   1.912       .  S
O92          C94   1.255       .  A
O92         Al93   1.879       .  S
Al93        O101   1.853       .  S
Al93        O103   1.954       .  S
Al93        O102   1.764       .  S
C94         O107   1.261       .  A
C94        C1496   1.458       .  S
O95         C105   1.258       .  A
O95         Al97   1.848       .  S
O96         C109   1.268       .  A
O96        Al106   1.946       .  S
Al97        O110   1.895       .  S
Al97        O107   1.921       .  S
Al97        O102   1.776       .  S
O98         C105   1.276       .  A
O98        Al106   1.967       .  S
O99         C108   1.273       .  A
O99        Al106   1.965       .  S
O100       Al106   1.940       .  S
O101        C108   1.256       .  A
O102       Al106   1.776       .  S
O103        C104   1.271       .  A
C104       C1426   1.482       .  S
C105       C1409   1.477       .  S
C108       C1446   1.477       .  S
C109        O110   1.257       .  A
C109       C1416   1.481       .  S
O111        C126   1.262       .  A
O111       Al119   1.889       .  S
C112        O122   1.263       .  A
C112        O113   1.256       .  A
C112       C1369   1.484       .  S
O113       Al115   1.901       .  S
O114        C116   1.257       .  A
O114       Al115   1.878       .  S
Al115       O123   1.846       .  S
Al115       O125   1.935       .  S
Al115       O124   1.774       .  S
C116        O129   1.257       .  A
C116       C1396   1.465       .  S
O117        C127   1.260       .  A
O117       Al119   1.860       .  S
O118        C131   1.264       .  A
O118       Al128   1.946       .  S
Al119       O132   1.879       .  S
Al119       O129   1.914       .  S
Al119       O124   1.785       .  S
O120        C127   1.278       .  A
O120       Al128   1.968       .  S
O121        C130   1.275       .  A
O121       Al128   1.965       .  S
O122       Al128   1.932       .  S
O123        C130   1.255       .  A
O124       Al128   1.777       .  S
O125        C126   1.270       .  A
C126       C1386   1.475       .  S
C127       C1359   1.488       .  S
C130       C1449   1.473       .  S
C131        O132   1.252       .  A
C131       C1376   1.479       .  S
O133        C148   1.260       .  A
O133       Al141   1.883       .  S
C134        O144   1.263       .  A
C134        O135   1.262       .  A
C134       C1329   1.498       .  S
O135       Al137   1.917       .  S
O136        C138   1.260       .  A
O136       Al137   1.894       .  S
Al137       O145   1.856       .  S
Al137       O147   1.917       .  S
Al137       O146   1.775       .  S
C138        O151   1.262       .  A
C138       C1336   1.473       .  S
O139        C149   1.260       .  A
O139       Al141   1.871       .  S
O140        C153   1.261       .  A
O140       Al150   1.912       .  S
Al141       O154   1.916       .  S
Al141       O151   1.925       .  S
Al141       O146   1.777       .  S
O142        C149   1.275       .  A
O142       Al150   1.960       .  S
O143        C152   1.271       .  A
O143       Al150   1.962       .  S
O144       Al150   1.920       .  S
O145        C152   1.253       .  A
O146       Al150   1.779       .  S
O147        C148   1.266       .  A
C148       C1599   1.474       .  S
C149       C1306   1.479       .  S
C152       C1346   1.477       .  S
C153        O154   1.259       .  A
C153       C1319   1.488       .  S
O155        C170   1.263       .  A
O155       Al163   1.902       .  S
C156        O166   1.262       .  A
C156        O157   1.257       .  A
C156       C1279   1.491       .  S
O157       Al159   1.906       .  S
O158        C160   1.263       .  A
O158       Al159   1.888       .  S
Al159       O167   1.855       .  S
Al159       O169   1.890       .  S
Al159       O168   1.775       .  S
C160        O173   1.265       .  A
C160       C1289   1.473       .  S
O161        C171   1.259       .  A
O161       Al163   1.881       .  S
O162        C175   1.258       .  A
O162       Al172   1.895       .  S
Al163       O176   1.921       .  S
Al163       O173   1.928       .  S
Al163       O168   1.775       .  S
O164        C171   1.270       .  A
O164       Al172   1.942       .  S
O165        C174   1.274       .  A
O165       Al172   1.965       .  S
O166       Al172   1.918       .  S
O167        C174   1.254       .  A
O168       Al172   1.778       .  S
O169        C170   1.255       .  A
C170       C1399   1.470       .  S
C171       C1266   1.478       .  S
C174       C1349   1.475       .  S
C175        O176   1.263       .  A
C175       C1296   1.490       .  S
O177        C192   1.264       .  A
O177       Al185   1.891       .  S
C178        O188   1.259       .  A
C178        O179   1.250       .  A
C178       C1216   1.486       .  S
O179       Al181   1.874       .  S
O180        C182   1.254       .  A
O180       Al181   1.878       .  S
Al181       O189   1.822       .  S
Al181       O191   1.919       .  S
Al181       O190   1.775       .  S
C182        O195   1.263       .  A
C182       C1226   1.477       .  S
O183        C193   1.265       .  A
O183       Al185   1.862       .  S
O184        C197   1.250       .  A
O184       Al194   1.888       .  S
Al185       O198   1.922       .  S
Al185       O195   1.949       .  S
Al185       O190   1.789       .  S
O186        C193   1.283       .  A
O186       Al194   1.977       .  S
O187        C196   1.278       .  A
O187       Al194   1.988       .  S
O188       Al194   1.928       .  S
O189        C196   1.245       .  A
O190       Al194   1.780       .  S
O191        C192   1.268       .  A
C192       C1236   1.475       .  S
C193       C1206   1.483       .  S
C196       C1246   1.504       .  S
C197        O198   1.255       .  A
C197       C1256   1.491   1_565  S
O199        C214   1.262       .  A
O199       Al207   1.895       .  S
C200        O210   1.265       .  A
C200        O201   1.261       .  A
C200       C1186   1.488       .  S
O201       Al203   1.916       .  S
O202        C204   1.260       .  A
O202       Al203   1.891       .  S
Al203       O211   1.851       .  S
Al203       O213   1.907       .  S
Al203       O212   1.761       .  S
C204        O217   1.267       .  A
C204       C1196   1.470       .  S
O205        C215   1.261       .  A
O205       Al207   1.874       .  S
O206        C219   1.263       .  A
O206       Al216   1.912       .  S
Al207       O220   1.928       .  S
Al207       O217   1.940       .  S
Al207       O212   1.772       .  S
O208        C215   1.273       .  A
O208       Al216   1.956       .  S
O209        C218   1.272       .  A
O209       Al216   1.980       .  S
O210       Al216   1.924       .  S
O211        C218   1.255       .  A
O212       Al216   1.776       .  S
O213        C214   1.259       .  A
C214       C1179   1.475       .  S
C215       C1156   1.486       .  S
C218       C1249   1.477       .  S
C219        O220   1.263       .  A
C219       C1166   1.479       .  S
O221        C236   1.262       .  A
O221       Al229   1.895   1_556  S
C222        O232   1.267       .  A
C222        O223   1.261   1_554  A
C222       C1109   1.492       .  S
O223       Al225   1.913       .  S
O224        C226   1.259       .  A
O224       Al225   1.877   1_554  S
Al225       O233   1.860       .  S
Al225       O235   1.935       .  S
Al225       O234   1.769   1_556  S
C226        O239   1.258       .  A
C226       C1116   1.462       .  S
O227        C237   1.259       .  A
O227       Al229   1.863       .  S
O228        C241   1.265       .  A
O228       Al238   1.937   1_556  S
Al229       O242   1.889       .  S
Al229       O239   1.914       .  S
Al229       O234   1.786       .  S
O230        C237   1.271       .  A
O230       Al238   1.948       .  S
O231        C240   1.268       .  A
O231       Al238   1.943   1_556  S
O232       Al238   1.941       .  S
O233        C240   1.257       .  A
O234       Al238   1.778       .  S
O235        C236   1.266       .  A
C236       C1149   1.486       .  S
C237       C1096   1.487       .  S
C240       C1126   1.462       .  S
C241        O242   1.255   1_556  A
C241       C1136   1.473       .  S
O243        C258   1.258       .  A
O243       Al251   1.884       .  S
C244        O254   1.267       .  A
C244        O245   1.264       .  A
C244       C1066   1.493       .  S
O245       Al247   1.928       .  S
O246        C248   1.256       .  A
O246       Al247   1.865       .  S
Al247       O255   1.850       .  S
Al247       O257   1.944       .  S
Al247       O256   1.760       .  S
C248        O261   1.264       .  A
C248       C1239   1.463       .  S
O249        C259   1.258       .  A
O249       Al251   1.855       .  S
O250        C263   1.267       .  A
O250       Al260   1.934       .  S
Al251       O264   1.904       .  S
Al251       O261   1.937       .  S
Al251       O256   1.776       .  S
O252        C259   1.274       .  A
O252       Al260   1.963       .  S
O253        C262   1.272       .  A
O253       Al260   1.968       .  S
O254       Al260   1.936       .  S
O255        C262   1.255       .  A
O256       Al260   1.777       .  S
O257        C258   1.269       .  A
C258       C1086   1.484       .  S
C259       C1056   1.479       .  S
C262       C1129   1.474       .  S
C263        O264   1.261       .  A
C263       C1076   1.478       .  S
O265        C280   1.263       .  A
O265       Al273   1.896   1_554  S
C266        O276   1.264       .  A
C266        O267   1.258       .  A
C266       C1019   1.500       .  S
O267       Al269   1.908       .  S
O268        C270   1.260   1_554  A
O268       Al269   1.891       .  S
Al269       O277   1.858       .  S
Al269       O279   1.900       .  S
Al269       O278   1.779       .  S
C270        O283   1.260       .  A
C270       C1026   1.475       .  S
O271        C281   1.262       .  A
O271       Al273   1.878       .  S
O272        C285   1.265   1_554  A
O272       Al282   1.932       .  S
Al273       O286   1.901       .  S
Al273       O283   1.919       .  S
Al273       O278   1.777   1_556  S
O274        C281   1.271       .  A
O274       Al282   1.946   1_556  S
O275        C284   1.272       .  A
O275       Al282   1.965       .  S
O276       Al282   1.932       .  S
O277        C284   1.253       .  A
O278       Al282   1.779       .  S
O279        C280   1.259       .  A
C280       C1119   1.471       .  S
C281       C1006   1.488       .  S
C284       C1036   1.478       .  S
C285        O286   1.256       .  A
C285       C1049   1.499   1_565  S
O287        C302   1.260       .  A
O287       Al295   1.896       .  S
C288        O298   1.262       .  A
C288        O289   1.257       .  A
C288        C989   1.489       .  S
O289       Al291   1.907       .  S
O290        C292   1.266       .  A
O290       Al291   1.909       .  S
Al291       O299   1.858       .  S
Al291       O301   1.902       .  S
Al291       O300   1.783       .  S
C292        O305   1.267       .  A
C292        C996   1.484       .  S
O293        C303   1.259       .  A
O293       Al295   1.876       .  S
O294        C307   1.259       .  A
O294       Al304   1.909       .  S
Al295       O308   1.920       .  S
Al295       O305   1.931       .  S
Al295       O300   1.773       .  S
O296        C303   1.272       .  A
O296       Al304   1.957       .  S
O297        C306   1.275       .  A
O297       Al304   1.972       .  S
O298       Al304   1.919       .  S
O299        C306   1.257       .  A
O300       Al304   1.782       .  S
O301        C302   1.258       .  A
C302        C979   1.470       .  S
C303        C959   1.489       .  S
C306       C1039   1.483       .  S
C307        O308   1.263       .  A
C307        C969   1.498   1_565  S
O309        C324   1.259       .  A
O309       Al317   1.882       .  S
C310        O320   1.264       .  A
C310        O311   1.259       .  A
C310        C946   1.484       .  S
O311       Al313   1.912       .  S
O312        C314   1.259       .  A
O312       Al313   1.875       .  S
Al313       O321   1.852       .  S
Al313       O323   1.941       .  S
Al313       O322   1.772       .  S
C314        O327   1.263       .  A
C314        C976   1.472       .  S
O315        C325   1.256       .  A
O315       Al317   1.852       .  S
O316        C329   1.264       .  A
O316       Al326   1.929       .  S
Al317       O330   1.898       .  S
Al317       O327   1.930       .  S
Al317       O322   1.777       .  S
O318        C325   1.277       .  A
O318       Al326   1.966       .  S
O319        C328   1.276       .  A
O319       Al326   1.971       .  S
O320       Al326   1.932       .  S
O321        C328   1.257       .  A
O322       Al326   1.778       .  S
O323        C324   1.265       .  A
C324        C926   1.481       .  S
C325        C909   1.480       .  S
C328        C936   1.473       .  S
C329        O330   1.257       .  A
C329        C916   1.475       .  S
O331        C346   1.262       .  A
O331       Al339   1.878       .  S
C332        O342   1.262       .  A
C332        O333   1.259       .  A
C332        C896   1.486       .  S
O333       Al335   1.908       .  S
O334        C336   1.254       .  A
O334       Al335   1.876       .  S
Al335       O343   1.853       .  S
Al335       O345   1.948       .  S
Al335       O344   1.771       .  S
C336        O349   1.257       .  A
C336       C1176   1.467       .  S
O337        C347   1.262       .  A
O337       Al339   1.858       .  S
O338        C351   1.264       .  A
O338       Al348   1.944       .  S
Al339       O352   1.892       .  S
Al339       O349   1.925       .  S
Al339       O344   1.788       .  S
O340        C347   1.277       .  A
O340       Al348   1.956       .  S
O341        C350   1.271       .  A
O341       Al348   1.950       .  S
O342       Al348   1.928       .  S
O343        C350   1.254       .  A
O344       Al348   1.778       .  S
O345        C346   1.273       .  A
C346        C886   1.479       .  S
C347        C866   1.476       .  S
C350        C939   1.475       .  S
C351        O352   1.253       .  A
C351        C876   1.483   1_655  S
O353        C368   1.261   1_545  A
O353       Al361   1.872       .  S
C354        O364   1.264       .  A
C354        O355   1.261       .  A
C354       C1276   1.475       .  S
O355       Al357   1.905       .  S
O356        C358   1.254       .  A
O356       Al357   1.887       .  S
Al357       O365   1.854       .  S
Al357       O367   1.946       .  S
Al357       O366   1.768       .  S
C358        O371   1.253       .  A
C358        C849   1.465       .  S
O359        C369   1.259       .  A
O359       Al361   1.860       .  S
O360        C373   1.271       .  A
O360       Al370   1.965       .  S
Al361       O374   1.876       .  S
Al361       O371   1.908       .  S
Al361       O366   1.774       .  S
O362        C369   1.279       .  A
O362       Al370   1.972       .  S
O363        C372   1.274       .  A
O363       Al370   1.971       .  S
O364       Al370   1.920       .  S
O365        C372   1.254       .  A
O366       Al370   1.780       .  S
O367        C368   1.273   1_545  A
C368        C889   1.477       .  S
C369       C1559   1.479       .  S
C372        C859   1.486       .  S
C373        O374   1.254       .  A
C373       C1169   1.498       .  S
O375        C390   1.261       .  A
O375       Al383   1.888       .  S
C376        O386   1.268       .  A
C376        O377   1.262       .  A
C376       C1479   1.493       .  S
O377       Al379   1.916       .  S
O378        C380   1.256       .  A
O378       Al379   1.876       .  S
Al379       O387   1.855       .  S
Al379       O389   1.935       .  S
Al379       O388   1.766       .  S
C380        O393   1.263       .  A
C380        C836   1.461       .  S
O381        C391   1.257       .  A
O381       Al383   1.863       .  S
O382        C395   1.266       .  A
O382       Al392   1.935       .  S
Al383       O396   1.904       .  S
Al383       O393   1.928       .  S
Al383       O388   1.779       .  S
O384        C391   1.277       .  A
O384       Al392   1.968       .  S
O385        C394   1.274       .  A
O385       Al392   1.975       .  S
O386       Al392   1.941       .  S
O387        C394   1.255       .  A
O388       Al392   1.776       .  S
O389        C390   1.266       .  A
C390        C929   1.484   1_545  S
C391       C1606   1.486       .  S
C394        C856   1.476       .  S
C395        O396   1.258       .  A
C395        C966   1.477   1_655  S
O397        C412   1.262       .  A
O397       Al405   1.898       .  S
C398        O408   1.263       .  A
C398        O399   1.259       .  A
C398       C1589   1.496       .  S
O399       Al401   1.924       .  S
O400        C402   1.263       .  A
O400       Al401   1.892   1_545  S
Al401       O409   1.863       .  S
Al401       O411   1.898       .  S
Al401       O410   1.780       .  S
C402        O415   1.266       .  A
C402       C1339   1.478       .  S
O403        C413   1.258       .  A
O403       Al405   1.873       .  S
O404        C417   1.260       .  A
O404       Al414   1.902       .  S
Al405       O418   1.930       .  S
Al405       O415   1.932   1_565  S
Al405       O410   1.777       .  S
O406        C413   1.271       .  A
O406       Al414   1.951       .  S
O407        C416   1.276       .  A
O407       Al414   1.980       .  S
O408       Al414   1.928       .  S
O409        C416   1.255       .  A
O410       Al414   1.777       .  S
O411        C412   1.258       .  A
C412        C819   1.473       .  S
C413       C1009   1.478       .  S
C416        C829   1.488       .  S
C417        O418   1.264       .  A
C417       C1079   1.496       .  S
O419        C434   1.264       .  A
O419       Al427   1.895       .  S
C420        O430   1.264       .  A
C420        O421   1.257       .  A
C420       C1366   1.500       .  S
O421       Al423   1.904       .  S
O422        C424   1.262       .  A
O422       Al423   1.897   1_545  S
Al423       O431   1.854       .  S
Al423       O433   1.902       .  S
Al423       O432   1.781       .  S
C424        O437   1.261       .  A
C424       C1286   1.470       .  S
O425        C435   1.260       .  A
O425       Al427   1.871       .  S
O426        C439   1.262       .  A
O426       Al436   1.922       .  S
Al427       O440   1.910       .  S
Al427       O437   1.913   1_565  S
Al427       O432   1.776       .  S
O428        C435   1.277       .  A
O428       Al436   1.971       .  S
O429        C438   1.276       .  A
O429       Al436   1.978       .  S
O430       Al436   1.933       .  S
O431        C438   1.253       .  A
O432       Al436   1.778       .  S
O433        C434   1.259       .  A
C434        C846   1.473       .  S
C435        C956   1.488       .  S
C438        C826   1.484       .  S
C439        O440   1.257       .  A
C439        C879   1.491       .  S
O441        C456   1.258       .  A
O441       Al449   1.881   1_554  S
C442        O452   1.262       .  A
C442        O443   1.262       .  A
C442       C1636   1.500       .  S
O443       Al445   1.918       .  S
O444        C446   1.259   1_554  A
O444       Al445   1.888   1_545  S
Al445       O453   1.859       .  S
Al445       O455   1.910       .  S
Al445       O454   1.776       .  S
C446        O459   1.264       .  A
C446       C1536   1.470       .  S
O447        C457   1.260       .  A
O447       Al449   1.879       .  S
O448        C461   1.264   1_554  A
O448       Al458   1.913       .  S
Al449       O462   1.919       .  S
Al449       O459   1.927   1_565  S
Al449       O454   1.773   1_556  S
O450        C457   1.273       .  A
O450       Al458   1.955   1_556  S
O451        C460   1.273       .  A
O451       Al458   1.972       .  S
O452       Al458   1.919       .  S
O453        C460   1.253       .  A
O454       Al458   1.775       .  S
O455        C456   1.264       .  A
C456        C796   1.471       .  S
C457       C1209   1.488       .  S
C460        C806   1.483       .  S
C461        O462   1.261       .  A
C461       C1139   1.498       .  S
O463        C478   1.258       .  A
O463       Al471   1.885       .  S
C464        O474   1.265       .  A
C464        O465   1.262       .  A
C464       C1439   1.492       .  S
O465       Al467   1.926       .  S
O466        C468   1.260       .  A
O466       Al467   1.894   1_545  S
Al467       O475   1.857       .  S
Al467       O477   1.916       .  S
Al467       O476   1.775       .  S
C468        O481   1.265       .  A
C468       C1486   1.479       .  S
O469        C479   1.259       .  A
O469       Al471   1.874       .  S
O470        C483   1.263       .  A
O470       Al480   1.917       .  S
Al471       O484   1.923       .  S
Al471       O481   1.934   1_565  S
Al471       O476   1.771       .  S
O472        C479   1.272       .  A
O472       Al480   1.958       .  S
O473        C482   1.272       .  A
O473       Al480   1.969       .  S
O474       Al480   1.924       .  S
O475        C482   1.253       .  A
O476       Al480   1.778       .  S
O477        C478   1.265       .  A
C478        C839   1.476       .  S
C479       C1159   1.483       .  S
C482        C809   1.478       .  S
C483        O484   1.265       .  A
C483        C919   1.498       .  S
O485        C500   1.263       .  A
O485       Al493   1.881   1_556  S
C486        O496   1.263       .  A
C486        O487   1.259   1_554  A
C486       C1526   1.482       .  S
O487       Al489   1.904       .  S
O488        C490   1.256       .  A
O488       Al489   1.885   1_554  S
Al489       O497   1.854       .  S
Al489       O499   1.952       .  S
Al489       O498   1.772       .  S
C490        O503   1.259       .  A
C490        C799   1.458       .  S
O491        C501   1.258       .  A
O491       Al493   1.845       .  S
O492        C505   1.265       .  A
O492       Al502   1.942       .  S
Al493       O506   1.887       .  S
Al493       O503   1.912       .  S
Al493       O498   1.777   1_554  S
O494        C501   1.276       .  A
O494       Al502   1.963   1_554  S
O495        C504   1.273       .  A
O495       Al502   1.958       .  S
O496       Al502   1.929   1_554  S
O497        C504   1.257       .  A
O498       Al502   1.777       .  S
O499        C500   1.270       .  A
C500       C1146   1.486   1_545  S
C501       C1406   1.476       .  S
C504        C789   1.472       .  S
C505        O506   1.253   1_556  A
C505       C1046   1.476       .  S
O507        C522   1.260       .  A
O507       Al515   1.891       .  S
C508        O518   1.264       .  A
C508        O509   1.260       .  A
C508       C1326   1.481       .  S
O509       Al511   1.913       .  S
O510        C512   1.255       .  A
O510       Al511   1.867       .  S
Al511       O519   1.853       .  S
Al511       O521   1.939       .  S
Al511       O520   1.762       .  S
C512        O525   1.261       .  A
C512        C816   1.466       .  S
O513        C523   1.259       .  A
O513       Al515   1.862       .  S
O514        C527   1.264       .  A
O514       Al524   1.932       .  S
Al515       O528   1.894       .  S
Al515       O525   1.931       .  S
Al515       O520   1.780       .  S
O516        C523   1.277       .  A
O516       Al524   1.971       .  S
O517        C526   1.273       .  A
O517       Al524   1.966       .  S
O518       Al524   1.928       .  S
O519        C526   1.255       .  A
O520       Al524   1.775       .  S
O521        C522   1.269       .  A
C522       C1089   1.482   1_545  S
C523       C1356   1.488       .  S
C526        C786   1.472       .  S
C527        O528   1.259       .  A
C527       C1259   1.476       .  S
O529        C544   1.260       .  A
O529       Al537   1.893   1_554  S
C530        O540   1.265       .  A
C530        O531   1.259       .  A
C530       C1106   1.500       .  S
O531       Al533   1.919       .  S
O532        C534   1.261   1_554  A
O532       Al533   1.889       .  S
Al533       O541   1.857       .  S
Al533       O543   1.904       .  S
Al533       O542   1.780       .  S
C534        O547   1.264       .  A
C534       C1029   1.470       .  S
O535        C545   1.259       .  A
O535       Al537   1.876       .  S
O536        C549   1.263   1_554  A
O536       Al546   1.923       .  S
Al537       O550   1.914       .  S
Al537       O547   1.925       .  S
Al537       O542   1.776   1_556  S
O538        C545   1.273       .  A
O538       Al546   1.955   1_556  S
O539        C548   1.275       .  A
O539       Al546   1.973       .  S
O540       Al546   1.934       .  S
O541        C548   1.253       .  A
O542       Al546   1.775       .  S
O543        C544   1.262       .  A
C544        C766   1.472       .  S
C545       C1309   1.487       .  S
C548        C776   1.478       .  S
C549        O550   1.261       .  A
C549       C1646   1.500       .  S
O551        C566   1.262       .  A
O551       Al559   1.894       .  S
C552        O562   1.261       .  A
C552        O553   1.258       .  A
C552        C949   1.495       .  S
O553       Al555   1.909       .  S
O554        C556   1.259       .  A
O554       Al555   1.888       .  S
Al555       O563   1.846       .  S
Al555       O565   1.907       .  S
Al555       O564   1.778       .  S
C556        O569   1.268       .  A
C556        C999   1.483       .  S
O557        C567   1.263       .  A
O557       Al559   1.876       .  S
O558        C571   1.259       .  A
O558       Al568   1.904       .  S
Al559       O572   1.932       .  S
Al559       O569   1.953       .  S
Al559       O564   1.778       .  S
O560        C567   1.274       .  A
O560       Al568   1.956       .  S
O561        C570   1.274       .  A
O561       Al568   1.973       .  S
O562       Al568   1.923       .  S
O563        C570   1.252       .  A
O564       Al568   1.779       .  S
O565        C566   1.263       .  A
C566        C756   1.472       .  S
C567       C1269   1.489       .  S
C570        C779   1.485       .  S
C571        O572   1.262       .  A
C571       C1419   1.493       .  S
O573        C588   1.260       .  A
O573       Al581   1.876   1_556  S
C574        O584   1.267       .  A
C574        O575   1.265   1_554  A
C574       C1016   1.489       .  S
O575       Al577   1.930       .  S
O576        C578   1.257       .  A
O576       Al577   1.877   1_554  S
Al577       O585   1.845       .  S
Al577       O587   1.955       .  S
Al577       O586   1.762   1_556  S
C578        O591   1.261       .  A
C578        C769   1.460       .  S
O579        C589   1.256       .  A
O579       Al581   1.850       .  S
O580        C593   1.268   1_556  A
O580       Al590   1.943   1_556  S
Al581       O594   1.893       .  S
Al581       O591   1.922       .  S
Al581       O586   1.769       .  S
O582        C589   1.280       .  A
O582       Al590   1.985       .  S
O583        C592   1.275       .  A
O583       Al590   1.979   1_556  S
O584       Al590   1.931       .  S
O585        C592   1.254       .  A
O586       Al590   1.774       .  S
O587        C588   1.270       .  A
C588       C1659   1.486       .  S
C589        C906   1.481       .  S
C592        C746   1.477       .  S
C593        O594   1.256       .  A
C593       C1549   1.476   1_554  S
O595        C610   1.262       .  A
O595       Al603   1.887       .  S
C596        O606   1.262       .  A
C596        O597   1.262       .  A
C596       C1219   1.478       .  S
O597       Al599   1.916       .  S
O598        C600   1.255       .  A
O598       Al599   1.874       .  S
Al599       O607   1.852       .  S
Al599       O609   1.948       .  S
Al599       O608   1.768       .  S
C600        O613   1.259       .  A
C600        C736   1.467       .  S
O601        C611   1.260       .  A
O601       Al603   1.861       .  S
O602        C615   1.266       .  A
O602       Al612   1.935       .  S
Al603       O616   1.894       .  S
Al603       O613   1.921       .  S
Al603       O608   1.780       .  S
O604        C611   1.273       .  A
O604       Al612   1.953       .  S
O605        C614   1.270       .  A
O605       Al612   1.953       .  S
O606       Al612   1.920       .  S
O607        C614   1.255       .  A
O608       Al612   1.778       .  S
O609        C610   1.271       .  A
C610       C1579   1.483       .  S
C611        C869   1.478       .  S
C614        C749   1.467       .  S
C615        O616   1.257       .  A
C615       C1316   1.476   1_655  S
O617        C632   1.261       .  A
O617       Al625   1.893       .  S
C618        O628   1.263       .  A
C618        O619   1.258       .  A
C618       C1069   1.491       .  S
O619       Al621   1.919       .  S
O620        C622   1.266       .  A
O620       Al621   1.906       .  S
Al621       O629   1.865       .  S
Al621       O631   1.903       .  S
Al621       O630   1.783       .  S
C622        O635   1.264       .  A
C622       C1229   1.481       .  S
O623        C633   1.256       .  A
O623       Al625   1.870       .  S
O624        C637   1.261       .  A
O624       Al634   1.908       .  S
Al625       O638   1.913       .  S
Al625       O635   1.917       .  S
Al625       O630   1.770       .  S
O626        C633   1.273       .  A
O626       Al634   1.967       .  S
O627        C636   1.277       .  A
O627       Al634   1.979       .  S
O628       Al634   1.926       .  S
O629        C636   1.256       .  A
O630       Al634   1.779       .  S
O631        C632   1.258       .  A
C632        C739   1.472       .  S
C633       C1506   1.483       .  S
C636        C729   1.487       .  S
C637        O638   1.261       .  A
C637       C1569   1.488       .  S
O639        C654   1.257       .  A
O639       Al647   1.880       .  S
C640        O650   1.265       .  A
C640        O641   1.263       .  A
C640        C899   1.502       .  S
O641       Al643   1.924       .  S
O642        C644   1.258       .  A
O642       Al643   1.883       .  S
Al643       O651   1.855       .  S
Al643       O653   1.918       .  S
Al643       O652   1.774       .  S
C644        O657   1.266       .  A
C644       C1199   1.480       .  S
O645        C655   1.257       .  A
O645       Al647   1.870       .  S
O646        C659   1.264       .  A
O646       Al656   1.912       .  S
Al647       O660   1.929       .  S
Al647       O657   1.936       .  S
Al647       O652   1.773       .  S
O648        C655   1.274       .  A
O648       Al656   1.965       .  S
O649        C658   1.275       .  A
O649       Al656   1.980       .  S
O650       Al656   1.925       .  S
O651        C658   1.252       .  A
O652       Al656   1.777       .  S
O653        C654   1.265       .  A
C654        C716   1.476       .  S
C655       C1459   1.481       .  S
C658        C726   1.483       .  S
C659        O660   1.264       .  A
C659       C1379   1.493       .  S
O661        C676   1.259       .  A
O661       Al669   1.881       .  S
C662        O672   1.264       .  A
C662        O663   1.262       .  A
C662       C1189   1.481       .  S
O663       Al665   1.917       .  S
O664        C666   1.256       .  A
O664       Al665   1.878       .  S
Al665       O673   1.859       .  S
Al665       O675   1.948       .  S
Al665       O674   1.766       .  S
C666        O679   1.261       .  A
C666        C719   1.459       .  S
O667        C677   1.259       .  A
O667       Al669   1.859       .  S
O668        C681   1.263       .  A
O668       Al678   1.923       .  S
Al669       O682   1.901       .  S
Al669       O679   1.927       .  S
Al669       O674   1.780       .  S
O670        C677   1.275       .  A
O670       Al678   1.963       .  S
O671        C680   1.271       .  A
O671       Al678   1.955       .  S
O672       Al678   1.921       .  S
O673        C680   1.257       .  A
O674       Al678   1.775       .  S
O675        C676   1.271       .  A
C676       C1389   1.486       .  S
C677       C1059   1.485       .  S
C680        C709   1.472       .  S
C681        O682   1.258       .  A
C681       C1299   1.470       .  S
O683        C698   1.263       .  A
O683       Al691   1.887       .  S
C684        O694   1.261       .  A
C684        O685   1.260       .  A
C684        C986   1.480       .  S
O685       Al687   1.910       .  S
O686        C688   1.254       .  A
O686       Al687   1.876       .  S
Al687       O695   1.852       .  S
Al687       O697   1.944       .  S
Al687       O696   1.770       .  S
C688        O701   1.260       .  A
C688        C759   1.464       .  S
O689        C699   1.261       .  A
O689       Al691   1.862       .  S
O690        C703   1.263       .  A
O690       Al700   1.932       .  S
Al691       O704   1.898       .  S
Al691       O701   1.927       .  S
Al691       O696   1.783       .  S
O692        C699   1.275       .  A
O692       Al700   1.957       .  S
O693        C702   1.271       .  A
O693       Al700   1.953       .  S
O694       Al700   1.920       .  S
O695        C702   1.255       .  A
O696       Al700   1.777       .  S
O697        C698   1.271       .  A
C698       C1429   1.478       .  S
C699       C1099   1.475       .  S
C702        C706   1.473       .  S
C703        O704   1.256       .  A
C703       C1469   1.478       .  S
C705        C706   1.409       .  A
C705        C710   1.398       .  A
C705        H712   1.084       .  S
C706        C707   1.403       .  A
C707        C708   1.401       .  A
C707       Br714   1.918       .  S
C708        C709   1.409       .  A
C708        H713   1.084       .  S
C709        C710   1.402       .  A
C710       Br711   1.916       .  S
C715        C716   1.405       .  A
C715        C720   1.392       .  A
C715        H722   1.083       .  S
C716        C717   1.417       .  A
C717        C718   1.395       .  A
C717       Br724   1.924       .  S
C718        C719   1.400       .  A
C718        H723   1.084       .  S
C719        C720   1.404       .  A
C720       Br721   1.917       .  S
C725        C726   1.399       .  A
C725        C730   1.404       .  A
C725        H732   1.084       .  S
C726        C727   1.416       .  A
C727        C728   1.406       .  A
C727       Br734   1.916       .  S
C728        C729   1.399       .  A
C728        H733   1.083       .  S
C729        C730   1.417       .  A
C730       Br731   1.916       .  S
C735        C736   1.401       .  A
C735        C740   1.391       .  A
C735        H742   1.084       .  S
C736        C737   1.410       .  A
C737        C738   1.394       .  A
C737       Br744   1.921       .  S
C738        C739   1.404       .  A
C738        H743   1.083       .  S
C739        C740   1.415       .  A
C740       Br741   1.925       .  S
C745        C746   1.412       .  A
C745        C750   1.396       .  A
C745        H752   1.084       .  S
C746        C747   1.403       .  A
C747        C748   1.402       .  A
C747       Br754   1.917       .  S
C748        C749   1.410       .  A
C748        H753   1.084       .  S
C749        C750   1.399       .  A
C750       Br751   1.920       .  S
C755        C756   1.404       .  A
C755        C760   1.390       .  A
C755        H762   1.083       .  S
C756        C757   1.410       .  A
C757        C758   1.397       .  A
C757       Br764   1.920       .  S
C758        C759   1.404       .  A
C758        H763   1.084       .  S
C759        C760   1.406       .  A
C760       Br761   1.921       .  S
C765        C766   1.406       .  A
C765        C770   1.391   1_455  A
C765        H772   1.083       .  S
C766        C767   1.411       .  A
C767        C768   1.395   1_455  A
C767       Br774   1.923       .  S
C768        C769   1.403       .  A
C768        H773   1.084       .  S
C769        C770   1.404       .  A
C770       Br771   1.922       .  S
C775        C776   1.412       .  A
C775        C780   1.409       .  A
C775        H782   1.084       .  S
C776        C777   1.404       .  A
C777        C778   1.400       .  A
C777       Br784   1.919       .  S
C778        C779   1.411       .  A
C778        H783   1.084       .  S
C779        C780   1.405       .  A
C780       Br781   1.916       .  S
C785        C786   1.397       .  A
C785        C790   1.400       .  A
C785        H792   1.084       .  S
C786        C787   1.417       .  A
C787        C788   1.397       .  A
C787       Br794   1.920       .  S
C788        C789   1.395       .  A
C788        H793   1.084       .  S
C789        C790   1.417       .  A
C790       Br791   1.920       .  S
C795        C796   1.406   1_545  A
C795        C800   1.391       .  A
C795        H802   1.083       .  S
C796        C797   1.414       .  A
C797        C798   1.391       .  A
C797       Br804   1.925       .  S
C798        C799   1.401   1_565  A
C798        H803   1.084       .  S
C799        C800   1.403       .  A
C800       Br801   1.918       .  S
C805        C806   1.398       .  A
C805        C810   1.404       .  A
C805        H812   1.083       .  S
C806        C807   1.415       .  A
C807        C808   1.402       .  A
C807       Br814   1.911       .  S
C808        C809   1.397       .  A
C808        H813   1.084       .  S
C809        C810   1.415       .  A
C810       Br811   1.915       .  S
C815        C816   1.400       .  A
C815        C820   1.390       .  A
C815        H822   1.085       .  S
C816        C817   1.408   1_545  A
C817        C818   1.396       .  A
C817       Br824   1.920       .  S
C818        C819   1.405       .  A
C818        H823   1.083       .  S
C819        C820   1.416   1_565  A
C820       Br821   1.926       .  S
C825        C826   1.398       .  A
C825        C830   1.405       .  A
C825        H832   1.084       .  S
C826        C827   1.417       .  A
C827        C828   1.406       .  A
C827       Br834   1.916       .  S
C828        C829   1.399       .  A
C828        H833   1.083       .  S
C829        C830   1.418       .  A
C830       Br831   1.915       .  S
C835        C836   1.401   1_565  A
C835        C840   1.396       .  A
C835        H842   1.084       .  S
C836        C837   1.404       .  A
C837        C838   1.392       .  A
C837       Br844   1.919       .  S
C838        C839   1.406   1_545  A
C838        H843   1.083       .  S
C839        C840   1.415       .  A
C840       Br841   1.924       .  S
C845        C846   1.403       .  A
C845        C850   1.392   1_455  A
C845        H852   1.084       .  S
C846        C847   1.416   1_565  A
C847        C848   1.393       .  A
C847       Br854   1.925       .  S
C848        C849   1.399   1_455  A
C848        H853   1.084   1_455  S
C849        C850   1.409   1_545  A
C850       Br851   1.918       .  S
C855        C856   1.409       .  A
C855        C860   1.402       .  A
C855        H862   1.084       .  S
C856        C857   1.402       .  A
C857        C858   1.403       .  A
C857       Br864   1.917       .  S
C858        C859   1.413       .  A
C858        H863   1.084       .  S
C859        C860   1.403       .  A
C860       Br861   1.909       .  S
C865        C866   1.409       .  A
C865        C870   1.397       .  A
C865        H872   1.084       .  S
C866        C867   1.407       .  A
C867        C868   1.396       .  A
C867       Br874   1.921       .  S
C868        C869   1.409       .  A
C868        H873   1.084       .  S
C869        C870   1.408       .  A
C870       Br871   1.921       .  S
C875        C876   1.402       .  A
C875        C880   1.407       .  A
C875        H882   1.083       .  S
C876        C877   1.412       .  A
C877        C878   1.401       .  A
C877       Br884   1.920       .  S
C878        C879   1.403       .  A
C878        H883   1.083       .  S
C879        C880   1.418       .  A
C880       Br881   1.920       .  S
C885        C886   1.403       .  A
C885        C890   1.397       .  A
C885        H892   1.083       .  S
C886        C887   1.413       .  A
C887        C888   1.396       .  A
C887       Br894   1.921       .  S
C888        C889   1.402       .  A
C888        H893   1.083       .  S
C889        C890   1.414       .  A
C890       Br891   1.924       .  S
C895        C896   1.402       .  A
C895        C900   1.408       .  A
C895        H902   1.084       .  S
C896        C897   1.408       .  A
C897        C898   1.405       .  A
C897       Br904   1.917       .  S
C898        C899   1.409       .  A
C898        H903   1.083       .  S
C899        C900   1.420       .  A
C900       Br901   1.921       .  S
C905        C906   1.398       .  A
C905        C910   1.401       .  A
C905        H912   1.083       .  S
C906        C907   1.421       .  A
C907        C908   1.396       .  A
C907       Br914   1.923       .  S
C908        C909   1.396       .  A
C908        H913   1.084       .  S
C909        C910   1.420       .  A
C910       Br911   1.923       .  S
C915        C916   1.403       .  A
C915        C920   1.406       .  A
C915        H922   1.084       .  S
C916        C917   1.403       .  A
C917        C918   1.400       .  A
C917       Br924   1.919       .  S
C918        C919   1.412       .  A
C918        H923   1.083       .  S
C919        C920   1.419       .  A
C920       Br921   1.921       .  S
C925        C926   1.405       .  A
C925        C930   1.396       .  A
C925        H932   1.083       .  S
C926        C927   1.412       .  A
C927        C928   1.398       .  A
C927       Br934   1.923       .  S
C928        C929   1.408       .  A
C928        H933   1.083       .  S
C929        C930   1.414       .  A
C930       Br931   1.923       .  S
C935        C936   1.397       .  A
C935        C940   1.400       .  A
C935        H942   1.084       .  S
C936        C937   1.417       .  A
C937        C938   1.398       .  A
C937       Br944   1.920       .  S
C938        C939   1.396       .  A
C938        H943   1.084       .  S
C939        C940   1.418       .  A
C940       Br941   1.922       .  S
C945        C946   1.405       .  A
C945        C950   1.405       .  A
C945        H952   1.084       .  S
C946        C947   1.406       .  A
C947        C948   1.406       .  A
C947       Br954   1.918       .  S
C948        C949   1.410   1_655  A
C948        H953   1.083   1_655  S
C949        C950   1.415   1_455  A
C950       Br951   1.921   1_655  S
C955        C956   1.409       .  A
C955        C960   1.403       .  A
C955        H962   1.084       .  S
C956        C957   1.409       .  A
C957        C958   1.404       .  A
C957       Br964   1.919       .  S
C958        C959   1.410       .  A
C958        H963   1.084       .  S
C959        C960   1.410       .  A
C960       Br961   1.920   1_565  S
C965        C966   1.404       .  A
C965        C970   1.406       .  A
C965        H972   1.084       .  S
C966        C967   1.405       .  A
C967        C968   1.401       .  A
C967       Br974   1.918   1_455  S
C968        C969   1.410       .  A
C968        H973   1.083   1_545  S
C969        C970   1.419       .  A
C970       Br971   1.922       .  S
C975        C976   1.402   1_455  A
C975        C980   1.391       .  A
C975        H982   1.084   1_455  S
C976        C977   1.412       .  A
C977        C978   1.397   1_655  A
C977       Br984   1.922       .  S
C978        C979   1.403       .  A
C978        H983   1.084       .  S
C979        C980   1.413       .  A
C980       Br981   1.924       .  S
C985        C986   1.402       .  A
C985        C990   1.406       .  A
C985        H992   1.084       .  S
C986        C987   1.408       .  A
C987        C988   1.401       .  A
C987       Br994   1.917       .  S
C988        C989   1.404       .  A
C988        H993   1.084       .  S
C989        C990   1.417       .  A
C990       Br991   1.921       .  S
C995        C996   1.406       .  A
C995       C1000   1.399       .  A
C995       H1002   1.084       .  S
C996        C997   1.411       .  A
C997        C998   1.404       .  A
C997      Br1004   1.920       .  S
C998        C999   1.407       .  A
C998       H1003   1.084       .  S
C999       C1000   1.410       .  A
C1000     Br1001   1.922       .  S
C1005      C1006   1.410       .  A
C1005      C1010   1.400       .  A
C1005      H1012   1.084       .  S
C1006      C1007   1.413       .  A
C1007      C1008   1.401       .  A
C1007     Br1014   1.921       .  S
C1008      C1009   1.406       .  A
C1008      H1013   1.083       .  S
C1009      C1010   1.407       .  A
C1010     Br1011   1.920       .  S
C1015      C1016   1.402       .  A
C1015      C1020   1.408       .  A
C1015      H1022   1.084       .  S
C1016      C1017   1.411   1_554  A
C1017      C1018   1.407       .  A
C1017     Br1024   1.918       .  S
C1018      C1019   1.408   1_656  A
C1018      H1023   1.083   1_655  S
C1019      C1020   1.419   1_455  A
C1020     Br1021   1.920   1_655  S
C1025      C1026   1.402       .  A
C1025      C1030   1.394       .  A
C1025      H1032   1.084       .  S
C1026      C1027   1.415       .  A
C1027      C1028   1.398       .  A
C1027     Br1034   1.923       .  S
C1028      C1029   1.402       .  A
C1028      H1033   1.084       .  S
C1029      C1030   1.411       .  A
C1030     Br1031   1.921       .  S
C1035      C1036   1.411       .  A
C1035      C1040   1.407       .  A
C1035      H1042   1.084       .  S
C1036      C1037   1.404       .  A
C1037      C1038   1.401       .  A
C1037     Br1044   1.917       .  S
C1038      C1039   1.409       .  A
C1038      H1043   1.084       .  S
C1039      C1040   1.405       .  A
C1040     Br1041   1.916       .  S
C1045      C1046   1.398       .  A
C1045      C1050   1.403       .  A
C1045      H1052   1.084       .  S
C1046      C1047   1.409   1_556  A
C1047      C1048   1.405       .  A
C1047     Br1054   1.918       .  S
C1048      C1049   1.407   1_554  A
C1048      H1053   1.083       .  S
C1049      C1050   1.424       .  A
C1050     Br1051   1.924   1_545  S
C1055      C1056   1.410       .  A
C1055      C1060   1.398       .  A
C1055      H1062   1.084       .  S
C1056      C1057   1.405       .  A
C1057      C1058   1.398       .  A
C1057     Br1064   1.920       .  S
C1058      C1059   1.413       .  A
C1058      H1063   1.083       .  S
C1059      C1060   1.409       .  A
C1060     Br1061   1.921       .  S
C1065      C1066   1.407       .  A
C1065      C1070   1.411       .  A
C1065      H1072   1.083       .  S
C1066      C1067   1.414       .  A
C1067      C1068   1.401       .  A
C1067     Br1074   1.915       .  S
C1068      C1069   1.401       .  A
C1068      H1073   1.084       .  S
C1069      C1070   1.415       .  A
C1070     Br1071   1.919       .  S
C1075      C1076   1.401       .  A
C1075      C1080   1.400       .  A
C1075      H1082   1.084       .  S
C1076      C1077   1.406       .  A
C1077      C1078   1.407       .  A
C1077     Br1084   1.920       .  S
C1078      C1079   1.412       .  A
C1078      H1083   1.083       .  S
C1079      C1080   1.417       .  A
C1080     Br1081   1.921       .  S
C1085      C1086   1.405       .  A
C1085      C1090   1.398       .  A
C1085      H1092   1.083       .  S
C1086      C1087   1.416       .  A
C1087      C1088   1.397       .  A
C1087     Br1094   1.919       .  S
C1088      C1089   1.402       .  A
C1088      H1093   1.084       .  S
C1089      C1090   1.411       .  A
C1090     Br1091   1.917       .  S
C1095      C1096   1.413       .  A
C1095      C1100   1.398       .  A
C1095      H1102   1.083       .  S
C1096      C1097   1.412       .  A
C1097      C1098   1.397       .  A
C1097     Br1104   1.921       .  S
C1098      C1099   1.406       .  A
C1098      H1103   1.084       .  S
C1099      C1100   1.405       .  A
C1100     Br1101   1.920       .  S
C1105      C1106   1.413       .  A
C1105      C1110   1.413       .  A
C1105      H1112   1.083       .  S
C1106      C1107   1.414   1_554  A
C1107      C1108   1.403       .  A
C1107     Br1114   1.917       .  S
C1108      C1109   1.404   1_556  A
C1108      H1113   1.084       .  S
C1109      C1110   1.410       .  A
C1110     Br1111   1.918       .  S
C1115      C1116   1.398       .  A
C1115      C1120   1.390       .  A
C1115      H1122   1.084       .  S
C1116      C1117   1.408       .  A
C1117      C1118   1.395       .  A
C1117     Br1124   1.921       .  S
C1118      C1119   1.405       .  A
C1118      H1123   1.084       .  S
C1119      C1120   1.415       .  A
C1120     Br1121   1.924       .  S
C1125      C1126   1.409       .  A
C1125      C1130   1.403       .  A
C1125      H1132   1.084       .  S
C1126      C1127   1.398       .  A
C1127      C1128   1.391       .  A
C1127     Br1134   1.919       .  S
C1128      C1129   1.410       .  A
C1128      H1133   1.084       .  S
C1129      C1130   1.404       .  A
C1130     Br1131   1.917       .  S
C1135      C1136   1.400       .  A
C1135      C1140   1.403       .  A
C1135      H1142   1.084       .  S
C1136      C1137   1.406   1_556  A
C1137      C1138   1.403       .  A
C1137     Br1144   1.918       .  S
C1138      C1139   1.409   1_554  A
C1138      H1143   1.083       .  S
C1139      C1140   1.422       .  A
C1140     Br1141   1.924       .  S
C1145      C1146   1.406       .  A
C1145      C1150   1.396       .  A
C1145      H1152   1.084       .  S
C1146      C1147   1.413       .  A
C1147      C1148   1.402       .  A
C1147     Br1154   1.922       .  S
C1148      C1149   1.409       .  A
C1148      H1153   1.084       .  S
C1149      C1150   1.415       .  A
C1150     Br1151   1.925       .  S
C1155      C1156   1.409       .  A
C1155      C1160   1.400       .  A
C1155      H1162   1.084       .  S
C1156      C1157   1.410       .  A
C1157      C1158   1.401       .  A
C1157     Br1164   1.920       .  S
C1158      C1159   1.408       .  A
C1158      H1163   1.084       .  S
C1159      C1160   1.410       .  A
C1160     Br1161   1.921       .  S
C1165      C1166   1.406   1_545  A
C1165      C1170   1.411       .  A
C1165      H1172   1.083       .  S
C1166      C1167   1.403   1_565  A
C1167      C1168   1.393       .  A
C1167     Br1174   1.918   1_545  S
C1168      C1169   1.412       .  A
C1168      H1173   1.084       .  S
C1169      C1170   1.413       .  A
C1170     Br1171   1.906       .  S
C1175      C1176   1.401       .  A
C1175      C1180   1.392       .  A
C1175      H1182   1.084       .  S
C1176      C1177   1.408       .  A
C1177      C1178   1.394       .  A
C1177     Br1184   1.918       .  S
C1178      C1179   1.405       .  A
C1178      H1183   1.083       .  S
C1179      C1180   1.416       .  A
C1180     Br1181   1.924       .  S
C1185      C1186   1.410       .  A
C1185      C1190   1.405       .  A
C1185      H1192   1.084       .  S
C1186      C1187   1.413       .  A
C1187      C1188   1.402       .  A
C1187     Br1194   1.920       .  S
C1188      C1189   1.404       .  A
C1188      H1193   1.084       .  S
C1189      C1190   1.407       .  A
C1190     Br1191   1.918       .  S
C1195      C1196   1.401       .  A
C1195      C1200   1.397       .  A
C1195      H1202   1.084       .  S
C1196      C1197   1.406       .  A
C1197      C1198   1.399       .  A
C1197     Br1204   1.918       .  S
C1198      C1199   1.406       .  A
C1198      H1203   1.083       .  S
C1199      C1200   1.414       .  A
C1200     Br1201   1.922       .  S
C1205      C1206   1.407       .  A
C1205      C1210   1.400       .  A
C1205      H1212   1.084       .  S
C1206      C1207   1.408       .  A
C1207      C1208   1.404       .  A
C1207     Br1214   1.919   1_565  S
C1208      C1209   1.411       .  A
C1208      H1213   1.084       .  S
C1209      C1210   1.412       .  A
C1210     Br1211   1.922       .  S
C1215      C1216   1.404       .  A
C1215      C1220   1.405       .  A
C1215      H1222   1.083       .  S
C1216      C1217   1.415       .  A
C1217      C1218   1.403       .  A
C1217     Br1224   1.921       .  S
C1218      C1219   1.401       .  A
C1218      H1223   1.084       .  S
C1219      C1220   1.409       .  A
C1220     Br1221   1.916       .  S
C1225      C1226   1.401       .  A
C1225      C1230   1.395       .  A
C1225      H1232   1.084       .  S
C1226      C1227   1.413       .  A
C1227      C1228   1.401       .  A
C1227     Br1234   1.920       .  S
C1228      C1229   1.405       .  A
C1228      H1233   1.084       .  S
C1229      C1230   1.416       .  A
C1230     Br1231   1.925       .  S
C1235      C1236   1.405       .  A
C1235      C1240   1.390       .  A
C1235      H1242   1.083       .  S
C1236      C1237   1.412       .  A
C1237      C1238   1.398       .  A
C1237     Br1244   1.920       .  S
C1238      C1239   1.403       .  A
C1238      H1243   1.084       .  S
C1239      C1240   1.405       .  A
C1240     Br1241   1.921       .  S
C1245      C1246   1.412       .  A
C1245      C1250   1.417       .  A
C1245      H1252   1.082       .  S
C1246      C1247   1.431       .  A
C1247      C1248   1.386       .  A
C1247     Br1254   1.930       .  S
C1248      C1249   1.391       .  A
C1248      H1253   1.086       .  S
C1249      C1250   1.409       .  A
C1250     Br1251   1.913   1_565  S
C1255      C1256   1.411       .  A
C1255      C1260   1.408       .  A
C1255      H1262   1.083       .  S
C1256      C1257   1.415       .  A
C1257      C1258   1.395       .  A
C1257     Br1264   1.915       .  S
C1258      C1259   1.399       .  A
C1258      H1263   1.084       .  S
C1259      C1260   1.408       .  A
C1260     Br1261   1.919       .  S
C1265      C1266   1.406       .  A
C1265      C1270   1.404       .  A
C1265      H1272   1.084       .  S
C1266      C1267   1.407       .  A
C1267      C1268   1.397       .  A
C1267     Br1274   1.921       .  S
C1268      C1269   1.408       .  A
C1268      H1273   1.084       .  S
C1269      C1270   1.414       .  A
C1270     Br1271   1.920       .  S
C1275      C1276   1.400       .  A
C1275      C1280   1.404       .  A
C1275      H1282   1.084       .  S
C1276      C1277   1.406       .  A
C1277      C1278   1.402       .  A
C1277     Br1284   1.917       .  S
C1278      C1279   1.407   1_655  A
C1278      H1283   1.083       .  S
C1279      C1280   1.420   1_455  A
C1280     Br1281   1.923   1_655  S
C1285      C1286   1.401       .  A
C1285      C1290   1.397       .  A
C1285      H1292   1.084       .  S
C1286      C1287   1.413       .  A
C1287      C1288   1.393       .  A
C1287     Br1294   1.922       .  S
C1288      C1289   1.401       .  A
C1288      H1293   1.084       .  S
C1289      C1290   1.415       .  A
C1290     Br1291   1.923       .  S
C1295      C1296   1.410       .  A
C1295      C1300   1.401       .  A
C1295      H1302   1.083       .  S
C1296      C1297   1.417       .  A
C1297      C1298   1.400       .  A
C1297     Br1304   1.922       .  S
C1298      C1299   1.401       .  A
C1298      H1303   1.084       .  S
C1299      C1300   1.405       .  A
C1300     Br1301   1.919       .  S
C1305      C1306   1.401       .  A
C1305      C1310   1.401       .  A
C1305      H1312   1.084       .  S
C1306      C1307   1.412       .  A
C1307      C1308   1.402       .  A
C1307     Br1314   1.922       .  S
C1308      C1309   1.404       .  A
C1308      H1313   1.083       .  S
C1309      C1310   1.418       .  A
C1310     Br1311   1.923       .  S
C1315      C1316   1.401       .  A
C1315      C1320   1.405       .  A
C1315      H1322   1.084       .  S
C1316      C1317   1.411       .  A
C1317      C1318   1.400       .  A
C1317     Br1324   1.921       .  S
C1318      C1319   1.404       .  A
C1318      H1323   1.083       .  S
C1319      C1320   1.417       .  A
C1320     Br1321   1.921       .  S
C1325      C1326   1.404       .  A
C1325      C1330   1.406       .  A
C1325      H1332   1.084       .  S
C1326      C1327   1.405       .  A
C1327      C1328   1.405       .  A
C1327     Br1334   1.919       .  S
C1328      C1329   1.412       .  A
C1328      H1333   1.083       .  S
C1329      C1330   1.417       .  A
C1330     Br1331   1.921       .  S
C1335      C1336   1.401       .  A
C1335      C1340   1.398       .  A
C1335      H1342   1.084       .  S
C1336      C1337   1.412       .  A
C1337      C1338   1.397       .  A
C1337     Br1344   1.922       .  S
C1338      C1339   1.404       .  A
C1338      H1343   1.084       .  S
C1339      C1340   1.415       .  A
C1340     Br1341   1.923       .  S
C1345      C1346   1.398       .  A
C1345      C1350   1.403       .  A
C1345      H1352   1.083       .  S
C1346      C1347   1.414       .  A
C1347      C1348   1.400       .  A
C1347     Br1354   1.907       .  S
C1348      C1349   1.395       .  A
C1348      H1353   1.084       .  S
C1349      C1350   1.416       .  A
C1350     Br1351   1.916       .  S
C1355      C1356   1.411       .  A
C1355      C1360   1.401       .  A
C1355      H1362   1.084       .  S
C1356      C1357   1.408       .  A
C1357      C1358   1.401       .  A
C1357     Br1364   1.920       .  S
C1358      C1359   1.412       .  A
C1358      H1363   1.084       .  S
C1359      C1360   1.408       .  A
C1360     Br1361   1.920       .  S
C1365      C1366   1.408       .  A
C1365      C1370   1.406   1_565  A
C1365      H1372   1.083       .  S
C1366      C1367   1.421   1_565  A
C1367      C1368   1.407       .  A
C1367     Br1374   1.922       .  S
C1368      C1369   1.401       .  A
C1368      H1373   1.084       .  S
C1369      C1370   1.409       .  A
C1370     Br1371   1.917       .  S
C1375      C1376   1.403       .  A
C1375      C1380   1.408       .  A
C1375      H1382   1.083       .  S
C1376      C1377   1.411       .  A
C1377      C1378   1.400       .  A
C1377     Br1384   1.921       .  S
C1378      C1379   1.404       .  A
C1378      H1383   1.083       .  S
C1379      C1380   1.418       .  A
C1380     Br1381   1.921       .  S
C1385      C1386   1.399       .  A
C1385      C1390   1.394       .  A
C1385      H1392   1.084       .  S
C1386      C1387   1.408       .  A
C1387      C1388   1.399       .  A
C1387     Br1394   1.920       .  S
C1388      C1389   1.408       .  A
C1388      H1393   1.083       .  S
C1389      C1390   1.419       .  A
C1390     Br1391   1.920       .  S
C1395      C1396   1.399       .  A
C1395      C1400   1.389       .  A
C1395      H1402   1.084       .  S
C1396      C1397   1.409       .  A
C1397      C1398   1.394       .  A
C1397     Br1404   1.921       .  S
C1398      C1399   1.404       .  A
C1398      H1403   1.083       .  S
C1399      C1400   1.417       .  A
C1400     Br1401   1.926       .  S
C1405      C1406   1.411       .  A
C1405      C1410   1.396       .  A
C1405      H1412   1.084       .  S
C1406      C1407   1.405       .  A
C1407      C1408   1.396       .  A
C1407     Br1414   1.920       .  S
C1408      C1409   1.412       .  A
C1408      H1413   1.084       .  S
C1409      C1410   1.405       .  A
C1410     Br1411   1.920       .  S
C1415      C1416   1.403       .  A
C1415      C1420   1.409       .  A
C1415      H1422   1.084       .  S
C1416      C1417   1.411       .  A
C1417      C1418   1.400       .  A
C1417     Br1424   1.921       .  S
C1418      C1419   1.405       .  A
C1418      H1423   1.084       .  S
C1419      C1420   1.417       .  A
C1420     Br1421   1.920       .  S
C1425      C1426   1.404       .  A
C1425      C1430   1.400       .  A
C1425      H1432   1.083       .  S
C1426      C1427   1.414       .  A
C1427      C1428   1.396       .  A
C1427     Br1434   1.916       .  S
C1428      C1429   1.401       .  A
C1428      H1433   1.084       .  S
C1429      C1430   1.409       .  A
C1430     Br1431   1.915       .  S
C1435      C1436   1.405       .  A
C1435      C1440   1.401   1_545  A
C1435      H1442   1.084       .  S
C1436      C1437   1.410       .  A
C1437      C1438   1.411   1_545  A
C1437     Br1444   1.917       .  S
C1438      C1439   1.411       .  A
C1438      H1443   1.083       .  S
C1439      C1440   1.412       .  A
C1440     Br1441   1.919       .  S
C1445      C1446   1.411       .  A
C1445      C1450   1.398       .  A
C1445      H1452   1.084       .  S
C1446      C1447   1.403       .  A
C1447      C1448   1.402       .  A
C1447     Br1454   1.918       .  S
C1448      C1449   1.411       .  A
C1448      H1453   1.084       .  S
C1449      C1450   1.401       .  A
C1450     Br1451   1.919       .  S
C1455      C1456   1.404       .  A
C1455      C1460   1.403       .  A
C1455      H1462   1.083       .  S
C1456      C1457   1.419       .  A
C1457      C1458   1.401       .  A
C1457     Br1464   1.924       .  S
C1458      C1459   1.400       .  A
C1458      H1463   1.084       .  S
C1459      C1460   1.414       .  A
C1460     Br1461   1.922       .  S
C1465      C1466   1.405       .  A
C1465      C1470   1.400       .  A
C1465      H1472   1.083       .  S
C1466      C1467   1.417       .  A
C1467      C1468   1.406       .  A
C1467     Br1474   1.920       .  S
C1468      C1469   1.402       .  A
C1468      H1473   1.084       .  S
C1469      C1470   1.410       .  A
C1470     Br1471   1.921       .  S
C1475      C1476   1.411       .  A
C1475      C1480   1.413       .  A
C1475      H1482   1.083       .  S
C1476      C1477   1.414       .  A
C1477      C1478   1.402       .  A
C1477     Br1484   1.916       .  S
C1478      C1479   1.404       .  A
C1478      H1483   1.084       .  S
C1479      C1480   1.411       .  A
C1480     Br1481   1.918       .  S
C1485      C1486   1.404       .  A
C1485      C1490   1.400       .  A
C1485      H1492   1.084       .  S
C1486      C1487   1.413       .  A
C1487      C1488   1.399       .  A
C1487     Br1494   1.922       .  S
C1488      C1489   1.403       .  A
C1488      H1493   1.084       .  S
C1489      C1490   1.414       .  A
C1490     Br1491   1.923       .  S
C1495      C1496   1.399       .  A
C1495      C1500   1.393       .  A
C1495      H1502   1.084       .  S
C1496      C1497   1.404       .  A
C1497      C1498   1.392       .  A
C1497     Br1504   1.920       .  S
C1498      C1499   1.407       .  A
C1498      H1503   1.083       .  S
C1499      C1500   1.415       .  A
C1500     Br1501   1.919       .  S
C1505      C1506   1.401       .  A
C1505      C1510   1.404       .  A
C1505      H1512   1.084       .  S
C1506      C1507   1.412       .  A
C1507      C1508   1.405       .  A
C1507     Br1514   1.920       .  S
C1508      C1509   1.405       .  A
C1508      H1513   1.083       .  S
C1509      C1510   1.421       .  A
C1510     Br1511   1.923       .  S
C1515      C1516   1.396       .  A
C1515      C1520   1.403       .  A
C1515      H1522   1.084       .  S
C1516      C1517   1.416       .  A
C1517      C1518   1.407       .  A
C1517     Br1524   1.915       .  S
C1518      C1519   1.399       .  A
C1518      H1523   1.083       .  S
C1519      C1520   1.415       .  A
C1520     Br1521   1.906       .  S
C1525      C1526   1.402   1_556  A
C1525      C1530   1.402       .  A
C1525      H1532   1.084       .  S
C1526      C1527   1.407       .  A
C1527      C1528   1.408       .  A
C1527     Br1534   1.917       .  S
C1528      C1529   1.411       .  A
C1528      H1533   1.083       .  S
C1529      C1530   1.416   1_554  A
C1530     Br1531   1.920       .  S
C1535      C1536   1.404       .  A
C1535      C1540   1.397       .  A
C1535      H1542   1.084       .  S
C1536      C1537   1.408       .  A
C1537      C1538   1.397       .  A
C1537     Br1544   1.921       .  S
C1538      C1539   1.405       .  A
C1538      H1543   1.084       .  S
C1539      C1540   1.410       .  A
C1540     Br1541   1.922       .  S
C1545      C1546   1.404   1_554  A
C1545      C1550   1.400       .  A
C1545      H1552   1.083       .  S
C1546      C1547   1.414       .  A
C1547      C1548   1.405       .  A
C1547     Br1554   1.920       .  S
C1548      C1549   1.402       .  A
C1548      H1553   1.084       .  S
C1549      C1550   1.411   1_556  A
C1550     Br1551   1.921       .  S
C1555      C1556   1.396       .  A
C1555      C1560   1.394       .  A
C1555      H1562   1.084       .  S
C1556      C1557   1.417       .  A
C1557      C1558   1.399       .  A
C1557     Br1564   1.923       .  S
C1558      C1559   1.401       .  A
C1558      H1563   1.083       .  S
C1559      C1560   1.419       .  A
C1560     Br1561   1.923       .  S
C1565      C1566   1.400       .  A
C1565      C1570   1.403       .  A
C1565      H1572   1.084       .  S
C1566      C1567   1.408       .  A
C1567      C1568   1.401       .  A
C1567     Br1574   1.919       .  S
C1568      C1569   1.405       .  A
C1568      H1573   1.083       .  S
C1569      C1570   1.417       .  A
C1570     Br1571   1.922       .  S
C1575      C1576   1.406       .  A
C1575      C1580   1.400       .  A
C1575      H1582   1.083       .  S
C1576      C1577   1.415       .  A
C1577      C1578   1.399       .  A
C1577     Br1584   1.920       .  S
C1578      C1579   1.402       .  A
C1578      H1583   1.083       .  S
C1579      C1580   1.411       .  A
C1580     Br1581   1.918       .  S
C1585      C1586   1.404       .  A
C1585      C1590   1.401       .  A
C1585      H1592   1.084       .  S
C1586      C1587   1.413       .  A
C1587      C1588   1.414       .  A
C1587     Br1594   1.918       .  S
C1588      C1589   1.411   1_645  A
C1588      H1593   1.083   1_545  S
C1589      C1590   1.412   1_465  A
C1590     Br1591   1.915   1_645  S
C1595      C1596   1.399       .  A
C1595      C1600   1.392   1_655  A
C1595      H1602   1.084       .  S
C1596      C1597   1.404       .  A
C1597      C1598   1.392   1_655  A
C1597     Br1604   1.920       .  S
C1598      C1599   1.406       .  A
C1598      H1603   1.083       .  S
C1599      C1600   1.415       .  A
C1600     Br1601   1.921       .  S
C1605      C1606   1.400       .  A
C1605      C1610   1.398       .  A
C1605      H1612   1.083       .  S
C1606      C1607   1.422       .  A
C1607      C1608   1.399       .  A
C1607     Br1614   1.923       .  S
C1608      C1609   1.398       .  A
C1608      H1613   1.084       .  S
C1609      C1610   1.416       .  A
C1610     Br1611   1.923       .  S
C1615      C1616   1.402       .  A
C1615      C1620   1.393       .  A
C1615      H1622   1.084       .  S
C1616      C1617   1.409       .  A
C1617      C1618   1.396       .  A
C1617     Br1624   1.921       .  S
C1618      C1619   1.405       .  A
C1618      H1623   1.083       .  S
C1619      C1620   1.415       .  A
C1620     Br1621   1.923       .  S
C1625      C1626   1.406       .  A
C1625      C1630   1.399       .  A
C1625      H1632   1.084       .  S
C1626      C1627   1.401       .  A
C1627      C1628   1.399       .  A
C1627     Br1634   1.919       .  S
C1628      C1629   1.411       .  A
C1628      H1633   1.084       .  S
C1629      C1630   1.406       .  A
C1630     Br1631   1.918       .  S
C1635      C1636   1.412   1_545  A
C1635      C1640   1.405       .  A
C1635      H1642   1.083       .  S
C1636      C1637   1.419   1_554  A
C1637      C1638   1.406   1_565  A
C1637     Br1644   1.922       .  S
C1638      C1639   1.402   1_556  A
C1638      H1643   1.084       .  S
C1639      C1640   1.405       .  A
C1640     Br1641   1.919       .  S
C1645      C1646   1.413       .  A
C1645      C1650   1.403       .  A
C1645      H1652   1.083       .  S
C1646      C1647   1.417   1_556  A
C1647      C1648   1.405       .  A
C1647     Br1654   1.920       .  S
C1648      C1649   1.403   1_554  A
C1648      H1653   1.084       .  S
C1649      C1650   1.405       .  A
C1650     Br1651   1.920   1_455  S
C1655      C1656   1.407       .  A
C1655      C1660   1.399       .  A
C1655      H1662   1.083       .  S
C1656      C1657   1.413       .  A
C1657      C1658   1.396       .  A
C1657     Br1664   1.924       .  S
C1658      C1659   1.408       .  A
C1658      H1663   1.084       .  S
C1659      C1660   1.412       .  A
C1660     Br1661   1.922       .  S
