geometry optimzed in LAMMPS
_audit_creation_date              2020-12-01 
_audit_creation_method            'lammps2cif' 
_symmetry_space_group_name_H-M    'P1' 
_symmetry_Int_Tables_number       1 
_symmetry_cell_setting            triclinic 
loop_ 
_symmetry_equiv_pos_as_xyz 
  x,y,z 
_cell_length_a                    42.95022408 
_cell_length_b                    38.19933618010486 
_cell_length_c                    94.05475099255882 
_cell_angle_alpha                 89.97557116364601 
_cell_angle_beta                  89.97653486206546 
_cell_angle_gamma                 89.98575803142876 
loop_ 
_atom_site_label 
_atom_site_type_symbol 
_atom_site_fract_x 
_atom_site_fract_y 
_atom_site_fract_z 
_atom_site_charge 
Fe1        Fe  0.97066837  0.22857017  0.44455984     1.65800
Fe2        Fe  0.95275317  0.14342178  0.44627833     1.73200
Fe3        Fe  0.94135429  0.19461282  0.47493888     1.54400
O4          O  0.98319828  0.21631315  0.48079215    -0.81500
O5          O  0.91364895  0.12768045  0.45784057    -0.79900
O6          O  0.99238003  0.25123536  0.46228970    -0.84100
O7          O  0.93122495  0.25699191  0.44838105    -0.78900
O8          O  0.95785354  0.14522181  0.48096227    -0.80700
O9          O  0.92463939  0.16260488  0.43042463    -0.83400
C10         C  0.92045559  0.26450659  0.46054328     0.97300
C11         C  0.99685963  0.24239818  0.47520706     1.04800
O12         O  0.95470651  0.18905366  0.45529014    -1.12400
O13         O  0.99284439  0.15089391  0.43400977    -0.74800
O14         O  0.01145925  0.20248793  0.44059801    -0.78300
O15         O  0.92388697  0.24474220  0.47134700    -0.79000
C16         C  0.01537674  0.17221041  0.43539809     0.96200
O17         O  0.95035924  0.21169060  0.42538884    -0.77000
O18         O  0.98047459  0.12265297  0.46173611    -0.82200
C19         C  0.89474827  0.14181849  0.46655437     0.98900
C20         C  0.97381482  0.12142276  0.47484463     1.04800
O21         O  0.89823657  0.17314573  0.47074164    -0.77800
C22         C  0.92996329  0.18853557  0.42234070     1.03100
Fe23       Fe  0.77542717  0.22081540  0.30479056     1.65800
Fe24       Fe  0.79643284  0.13627719  0.30434366     1.73200
Fe25       Fe  0.80082032  0.18428069  0.27423093     1.54400
O26         O  0.75699057  0.20302586  0.26961101    -0.81500
O27         O  0.83624882  0.12317874  0.29273578    -0.79900
O28         O  0.75096852  0.24078136  0.28732592    -0.84100
O29         O  0.81369063  0.24943810  0.29930670    -0.78900
O30         O  0.78590242  0.13359690  0.26954529    -0.80700
O31         O  0.82406250  0.15858994  0.31972772    -0.83400
C32         C  0.82274247  0.25577338  0.28673601     0.97300
C33         C  0.74391154  0.22977143  0.27496464     1.04800
O34         O  0.79117309  0.18047585  0.29444141    -1.12400
O35         O  0.75610373  0.14254120  0.31659004    -0.74800
O36         O  0.73615133  0.19392396  0.31035204    -0.78300
O37         O  0.81728263  0.23540556  0.27631040    -0.79000
C38         C  0.73315169  0.16353059  0.31560942     0.96200
O39         O  0.79775382  0.20750055  0.32384768    -0.77000
O40         O  0.76941881  0.11066656  0.28986568    -0.82200
C41         C  0.85272880  0.13648523  0.28284866     0.98900
C42         C  0.77321437  0.10889092  0.27656147     1.04800
O43         O  0.84533999  0.16541061  0.27706772    -0.77800
C44         C  0.81817941  0.18501606  0.32744328     1.03100
Fe45       Fe  0.52255980  0.77771443  0.05495023     1.65800
Fe46       Fe  0.54360374  0.86217991  0.05288739     1.73200
Fe47       Fe  0.55007084  0.80969863  0.02425980     1.54400
O48         O  0.56643390  0.75936786  0.02788734    -0.81500
O49         O  0.51645068  0.88540512  0.03777254    -0.79900
O50         O  0.56137878  0.74887940  0.05097692    -0.84100
O51         O  0.50000568  0.75460620  0.03756208    -0.78900
O52         O  0.59402708  0.82820393  0.02803073    -0.80700
O53         O  0.50311785  0.85656661  0.06523302    -0.83400
C54         C  0.49453122  0.76327495  0.02471525     0.97300
C55         C  0.57146776  0.74049279  0.03877766     1.04800
O56         O  0.53865744  0.81660638  0.04396708    -1.12400
O57         O  0.57149636  0.84118436  0.06848693    -0.74800
O58         O  0.54347273  0.79430793  0.07391720    -0.78300
O59         O  0.50692061  0.79000639  0.01904731    -0.79000
C60         C  0.56526650  0.81582699  0.07674399     0.96200
O61         O  0.48293412  0.80517105  0.05887140    -0.77000
O62         O  0.58342722  0.87524760  0.04097184    -0.82200
C63         C  0.52081120  0.88438225  0.02445896     0.98900
C64         C  0.60032019  0.85907946  0.03194678     1.04800
O65         O  0.53521030  0.85950484  0.01829132    -0.77800
C66         C  0.48003126  0.83587209  0.06374663     1.03100
Fe67       Fe  0.71848682  0.78160392  0.19501407     1.65800
Fe68       Fe  0.69417965  0.86571585  0.19488382     1.73200
Fe69       Fe  0.68372315  0.81604007  0.22424602     1.54400
O70         O  0.66822794  0.76488328  0.22106295    -0.81500
O71         O  0.71760961  0.89163877  0.21060827    -0.79900
O72         O  0.68126189  0.74925747  0.19893448    -0.84100
O73         O  0.74060455  0.76298364  0.21339786    -0.78900
O74         O  0.63990354  0.83495351  0.21935370    -0.80700
O75         O  0.73638075  0.86157522  0.18415565    -0.83400
C76         C  0.74230183  0.77252060  0.22637105     0.97300
C77         C  0.66800726  0.74327610  0.21074938     1.04800
O78         O  0.69860901  0.82096690  0.20472828    -1.12400
O79         O  0.67035950  0.84250471  0.17847101    -0.74800
O80         O  0.69866930  0.79424571  0.17526749    -0.78300
O81         O  0.72600019  0.79748428  0.23118349    -0.79000
C82         C  0.67839643  0.81630305  0.17101915     0.96200
O83         O  0.75749301  0.81085731  0.19074307    -0.77000
O84         O  0.65224848  0.87823644  0.20476059    -0.82200
C85         C  0.71220663  0.89109696  0.22384910     0.98900
C86         C  0.63391924  0.86453007  0.21378571     1.04800
O87         O  0.69794652  0.86611547  0.22999461    -0.77800
C88         C  0.75964854  0.84128545  0.18545987     1.03100
Fe89       Fe  0.28053283  0.22758543  0.80529739     1.65800
Fe90       Fe  0.29855843  0.14173776  0.80554280     1.73200
Fe91       Fe  0.31039880  0.18973535  0.77569809     1.54400
O92         O  0.26950543  0.21297390  0.76911105    -0.81500
O93         O  0.33882596  0.12508336  0.79527670    -0.79900
O94         O  0.25840279  0.24790075  0.78732153    -0.84100
O95         O  0.31992504  0.25565293  0.80087293    -0.78900
O96         O  0.29198399  0.14119907  0.77042698    -0.80700
O97         O  0.32490655  0.16317873  0.82156802    -0.83400
C98         C  0.33328775  0.26003331  0.78897929     0.97300
C99         C  0.25447124  0.23833100  0.77449055     1.04800
O100        O  0.29658484  0.18638487  0.79544008    -1.12400
O101        O  0.25734847  0.15037169  0.81674493    -0.74800
O102        O  0.23984088  0.20235133  0.81005083    -0.78300
O103        O  0.33042407  0.23874801  0.77865363    -0.79000
C104        C  0.23536615  0.17244449  0.81551689     0.96200
O105        O  0.30035911  0.21367645  0.82479892    -0.77000
O106        O  0.27296499  0.11691702  0.79020024    -0.82200
C107        C  0.35715686  0.13663497  0.78577556     0.98900
C108        C  0.27806190  0.11649733  0.77691126     1.04800
O109        O  0.35275714  0.16636222  0.78003278    -0.77800
C110        C  0.31928500  0.19020391  0.82899377     1.03100
Fe111      Fe  0.46514662  0.22139994  0.94791865     1.65800
Fe112      Fe  0.44603891  0.13657989  0.94780467     1.73200
Fe113      Fe  0.43835786  0.18385770  0.97791288     1.54400
O114        O  0.48089002  0.20445941  0.98330491    -0.81500
O115        O  0.40681611  0.12074502  0.95913440    -0.79900
O116        O  0.48685280  0.24254001  0.96574128    -0.84100
O117        O  0.42550989  0.24875673  0.95256002    -0.78900
O118        O  0.45561009  0.13396674  0.98257565    -0.80700
O119        O  0.41763304  0.15900383  0.93282431    -0.83400
C120        C  0.41473106  0.25438003  0.96491674     0.97300
C121        C  0.49314623  0.23192155  0.97821420     1.04800
O122        O  0.44956131  0.18063642  0.95794431    -1.12400
O123        O  0.48593312  0.14525328  0.93552654    -0.74800
O124        O  0.50569025  0.19528272  0.94354106    -0.78300
O125        O  0.41990650  0.23420322  0.97547223    -0.79000
C126        C  0.50896649  0.16530778  0.93797116     0.96200
O127        O  0.44508471  0.20707353  0.92851353    -0.77000
O128        O  0.47383787  0.11189114  0.96227354    -0.82200
C129        C  0.38925236  0.13370905  0.96867143     0.98900
C130        C  0.47020341  0.11044776  0.97563988     1.04800
O131        O  0.39484189  0.16317012  0.97434255    -0.77800
C132        C  0.42377217  0.18540216  0.92516728     1.03100
Fe133      Fe  0.21683461  0.77975319  0.70058638     1.65800
Fe134      Fe  0.19985154  0.86520305  0.70093010     1.73200
Fe135      Fe  0.19204147  0.81749351  0.73098095     1.54400
O136        O  0.17344399  0.76747394  0.72881760    -0.81500
O137        O  0.22835355  0.88863951  0.71546935    -0.79900
O138        O  0.17705533  0.75349340  0.70579929    -0.84100
O139        O  0.23999593  0.75862123  0.71812799    -0.78900
O140        O  0.14869415  0.83887990  0.72757023    -0.80700
O141        O  0.23930215  0.85617074  0.68860658    -0.83400
C142        C  0.24723415  0.76931497  0.73051138     0.97300
C143        C  0.16725645  0.74775412  0.71829207     1.04800
O144        O  0.20273194  0.82079586  0.71087832    -1.12400
O145        O  0.17083035  0.84446296  0.68566676    -0.74800
O146        O  0.19541049  0.79454034  0.68148470    -0.78300
O147        O  0.23464941  0.79611536  0.73606282    -0.79000
C148        C  0.17568722  0.81783169  0.67789531     0.96200
O149        O  0.25762318  0.80430140  0.69537667    -0.77000
O150        O  0.16133871  0.88149056  0.71252857    -0.82200
C151        C  0.22402468  0.89047809  0.72877875     0.98900
C152        C  0.14375053  0.86876157  0.72212038     1.04800
O153        O  0.20911621  0.86720642  0.73566806    -0.77800
C154        C  0.26148866  0.83436726  0.68998625     1.03100
Fe155      Fe  0.02859866  0.79436972  0.55741793     1.65800
Fe156      Fe  0.05308866  0.87846520  0.55780531     1.73200
Fe157      Fe  0.06064460  0.82958090  0.52775327     1.54400
O158        O  0.07793436  0.77930031  0.53096578    -0.81500
O159        O  0.03007147  0.90606120  0.54233576    -0.79900
O160        O  0.06592751  0.76296175  0.55315827    -0.84100
O161        O  0.00561674  0.77503252  0.53947184    -0.78900
O162        O  0.10446556  0.84990485  0.53153542    -0.80700
O163        O  0.01059088  0.87412884  0.56861224    -0.83400
C164        C  0.00223618  0.78441663  0.52657990     0.97300
C165        C  0.07895361  0.75759936  0.54124977     1.04800
O166        O  0.04772685  0.83413941  0.54760769    -1.12400
O167        O  0.07699722  0.85454060  0.57422486    -0.74800
O168        O  0.04863386  0.80655019  0.57708065    -0.78300
O169        O  0.01813972  0.80932068  0.52139833    -0.79000
C170        C  0.06883338  0.82821214  0.58160781     0.96200
O171        O  0.98982958  0.82339200  0.56170446    -0.77000
O172        O  0.09502341  0.89082709  0.54768889    -0.82200
C173        C  0.03327781  0.90520430  0.52893322     0.98900
C174        C  0.11161367  0.87845787  0.53765782     1.04800
O175        O  0.04493561  0.87925444  0.52232260    -0.77800
C176        C  0.98738062  0.85385713  0.56686271     1.03100
Fe177      Fe  0.21077444  0.97069551  0.05510940     1.65800
Fe178      Fe  0.19761354  0.88387612  0.05327109     1.73200
Fe179      Fe  0.18817623  0.93477525  0.02413057     1.54400
O180        O  0.16696699  0.98313820  0.02727732    -0.81500
O181        O  0.22596286  0.86212216  0.03814670    -0.79900
O182        O  0.16990423  0.99560267  0.05042677    -0.84100
O183        O  0.23211722  0.99576164  0.03796246    -0.78900
O184        O  0.14599580  0.91041263  0.02674701    -0.80700
O185        O  0.23800875  0.89359240  0.06509592    -0.83400
C186        C  0.23963775  0.98726449  0.02536095     0.97300
C187        C  0.15988768  0.00190370  0.03799519     1.04800
O188        O  0.19854499  0.92967862  0.04415269    -1.12400
O189        O  0.16891213  0.90177430  0.06924407    -0.74800
O190        O  0.19077647  0.95287490  0.07399311    -0.78300
O191        O  0.22970722  0.95921302  0.01974058    -0.79000
C192        C  0.17243826  0.92800537  0.07732248     0.96200
O193        O  0.25255512  0.94778150  0.05978107    -0.77000
O194        O  0.15828201  0.86742445  0.04186206    -0.82200
C195        C  0.22258264  0.86290186  0.02478436     0.98900
C196        C  0.14088801  0.88061344  0.03225284     1.04800
O197        O  0.20772666  0.88707226  0.01841825    -0.77800
C198        C  0.25889322  0.91726397  0.06417830     1.03100
Fe199      Fe  0.02657835  0.97014604  0.19613694     1.65800
Fe200      Fe  0.04446660  0.88446182  0.19725354     1.73200
Fe201      Fe  0.05311656  0.93412659  0.22680803     1.54400
O202        O  0.07178790  0.98367213  0.22394447    -0.81500
O203        O  0.01740372  0.86114135  0.21230372    -0.79900
O204        O  0.06590942  0.99799373  0.20103948    -0.84100
O205        O  0.00358369  0.99204042  0.21351449    -0.78900
O206        O  0.09645675  0.91149485  0.22362994    -0.80700
O207        O  0.00409663  0.89197751  0.18537271    -0.83400
C208        C  0.99783144  0.98280032  0.22624278     0.97300
C209        C  0.07633402  0.00395602  0.21342567     1.04800
O210        O  0.04157906  0.92962419  0.20677878    -1.12400
O211        O  0.07209445  0.90466644  0.18145580    -0.74800
O212        O  0.04771749  0.95479712  0.17709867    -0.78300
O213        O  0.01096012  0.95662535  0.23203090    -0.79000
C214        C  0.06713995  0.93107845  0.17362732     0.96200
O215        O  0.98595047  0.94474718  0.19105852    -0.77000
O216        O  0.08405462  0.86912250  0.20840041    -0.82200
C217        C  0.02147784  0.86111600  0.22563081     0.98900
C218        C  0.10182651  0.88193325  0.21789445     1.04800
O219        O  0.03560826  0.88538206  0.23222799    -0.77800
C220        C  0.98211234  0.91423704  0.18606784     1.03100
Fe221      Fe  0.96238130  0.53075997  0.30470296     1.65800
Fe222      Fe  0.94372201  0.61609321  0.30429915     1.73200
Fe223      Fe  0.93183756  0.56660052  0.27497277     1.54400
O224        O  0.97293509  0.54406780  0.26835879    -0.81500
O225        O  0.90298051  0.63181181  0.29390089    -0.79900
O226        O  0.98314457  0.50896229  0.28664123    -0.84100
O227        O  0.92262978  0.50269738  0.30097589    -0.78900
O228        O  0.94925829  0.61538372  0.26931270    -0.80700
O229        O  0.91768561  0.59533112  0.32054511    -0.83400
C230        C  0.90989926  0.49697591  0.28903310     0.97300
C231        C  0.98699839  0.51802789  0.27373283     1.04800
O232        O  0.94584562  0.57109643  0.29459448    -1.12400
O233        O  0.98542061  0.60832155  0.31540558    -0.74800
O234        O  0.00331660  0.55659680  0.30851626    -0.78300
O235        O  0.91314494  0.51719574  0.27837171    -0.79000
C236        C  0.00775328  0.58676704  0.31376100     0.96200
O237        O  0.94376836  0.54616475  0.32434658    -0.77000
O238        O  0.96928373  0.63961506  0.28879427    -0.82200
C239        C  0.88432368  0.61856784  0.28484195     0.98900
C240        C  0.96438363  0.63959843  0.27551453     1.04800
O241        O  0.88921028  0.58864204  0.27947450    -0.77800
C242        C  0.92439876  0.56937528  0.32839539     1.03100
Fe243      Fe  0.78308204  0.53729344  0.44829123     1.65800
Fe244      Fe  0.79845282  0.62340759  0.44879507     1.73200
Fe245      Fe  0.81018661  0.57495285  0.47831639     1.54400
O246        O  0.76920742  0.55117763  0.48405087    -0.81500
O247        O  0.83721066  0.64183816  0.46016301    -0.79900
O248        O  0.76221263  0.51438434  0.46608921    -0.84100
O249        O  0.82380721  0.51149209  0.45261737    -0.78900
O250        O  0.79080506  0.62300415  0.48359524    -0.80700
O251        O  0.82713089  0.60356657  0.43322657    -0.83400
C252        C  0.83611437  0.50651246  0.46472086     0.97300
C253        C  0.75718068  0.52373584  0.47887900     1.04800
O254        O  0.79741843  0.57850660  0.45852564    -1.12400
O255        O  0.75840197  0.61301241  0.43674466    -0.74800
O256        O  0.74125663  0.56107638  0.44378647    -0.78300
O257        O  0.83116752  0.52643781  0.47533067    -0.79000
C258        C  0.73649147  0.59078329  0.43813623     0.96200
O259        O  0.80251492  0.55348175  0.42897484    -0.77000
O260        O  0.77025702  0.64545443  0.46375730    -0.82200
C261        C  0.85578954  0.62951882  0.46948941     0.98900
C262        C  0.77500496  0.64612283  0.47705200     1.04800
O263        O  0.85232843  0.59895461  0.47451313    -0.77800
C264        C  0.82215013  0.57698140  0.42546683     1.03100
Fe265      Fe  0.52426294  0.97188497  0.69638273     1.65800
Fe266      Fe  0.54945963  0.88808517  0.69698839     1.73200
Fe267      Fe  0.55846469  0.93926683  0.72618285     1.54400
O268        O  0.57433329  0.99003921  0.72251872    -0.81500
O269        O  0.52683598  0.86188416  0.71287698    -0.79900
O270        O  0.56081983  0.00486514  0.70034294    -0.84100
O271        O  0.50082871  0.99051139  0.71427261    -0.78900
O272        O  0.60249955  0.91988232  0.72188925    -0.80700
O273        O  0.50702548  0.89067456  0.68642645    -0.83400
C274        C  0.49862228  0.98177277  0.72728445     0.97300
C275        C  0.57470295  0.01093395  0.71196983     1.04800
O276        O  0.54420626  0.93317724  0.70656486    -1.12400
O277        O  0.57288766  0.91095595  0.68034252    -0.74800
O278        O  0.54525288  0.95936923  0.67699366    -0.78300
O279        O  0.51607393  0.95864411  0.73279620    -0.79000
C280        C  0.56568450  0.93745510  0.67288077     0.96200
O281        O  0.48580866  0.94200394  0.69205769    -0.77000
O282        O  0.59159407  0.87704674  0.70684184    -0.82200
C283        C  0.53164860  0.86325793  0.72614997     0.98900
C284        C  0.60924607  0.89074411  0.71612285     1.04800
O285        O  0.54412237  0.88945722  0.73226365    -0.77800
C286        C  0.48368683  0.91093145  0.68749045     1.03100
Fe287      Fe  0.72365303  0.97850287  0.55630036     1.65800
Fe288      Fe  0.70390602  0.89334741  0.55635119     1.73200
Fe289      Fe  0.69603519  0.94100802  0.52633516     1.54400
O290        O  0.67777540  0.99110232  0.52838891    -0.81500
O291        O  0.73215087  0.86887381  0.54194776    -0.79900
O292        O  0.68571703  0.00791998  0.55084733    -0.84100
O293        O  0.74787342  0.99800720  0.53863934    -0.78900
O294        O  0.65244626  0.92002929  0.52998618    -0.80700
O295        O  0.74297694  0.90147871  0.56912630    -0.83400
C296        C  0.75265883  0.98800864  0.52588357     0.97300
C297        C  0.67458616  0.01283685  0.53852548     1.04800
O298        O  0.70766964  0.93778016  0.54628415    -1.12400
O299        O  0.67520336  0.91562263  0.57125141    -0.74800
O300        O  0.70075794  0.96519028  0.57525408    -0.78300
O301        O  0.73855507  0.96175699  0.52075031    -0.79000
C302        C  0.68034035  0.94256829  0.57880952     0.96200
O303        O  0.76318684  0.95184722  0.56204264    -0.77000
O304        O  0.66524158  0.87693982  0.54469292    -0.82200
C305        C  0.72798371  0.86798330  0.52861261     0.98900
C306        C  0.64738287  0.89000764  0.53528628     1.04800
O307        O  0.71308772  0.89150158  0.52185720    -0.77800
C308        C  0.76592119  0.92229959  0.56806569     1.03100
Fe309      Fe  0.47332051  0.53196819  0.80762300     1.65800
Fe310      Fe  0.45767691  0.61781087  0.80681062     1.73200
Fe311      Fe  0.44861488  0.56967674  0.77713043     1.54400
O312        O  0.49074263  0.54725824  0.77214759    -0.81500
O313        O  0.41913140  0.63486831  0.79514787    -0.79900
O314        O  0.49568926  0.50949559  0.79004858    -0.84100
O315        O  0.43324338  0.50599825  0.80262358    -0.78900
O316        O  0.46666677  0.61890493  0.77218122    -0.80700
O317        O  0.42830869  0.59807351  0.82201267    -0.83400
C318        C  0.42308329  0.50027205  0.79018891     0.97300
C319        C  0.50170308  0.51923709  0.77738348     1.04800
O320        O  0.45962228  0.57305890  0.79715652    -1.12400
O321        O  0.49684519  0.60805107  0.81935966    -0.74800
O322        O  0.51441265  0.55601480  0.81280996    -0.78300
O323        O  0.42907783  0.52007579  0.77963620    -0.79000
C324        C  0.51884880  0.58581241  0.81833460     0.96200
O325        O  0.45213123  0.54777624  0.82665370    -0.77000
O326        O  0.48678990  0.63989066  0.79218283    -0.82200
C327        C  0.40105692  0.62238846  0.78569248     0.98900
C328        C  0.48178094  0.64223133  0.77896659     1.04800
O329        O  0.40559434  0.59223588  0.78037783    -0.77800
C330        C  0.43233156  0.57142048  0.82982339     1.03100
Fe331      Fe  0.26999605  0.52818398  0.94462180     1.65800
Fe332      Fe  0.29135372  0.61278331  0.94663752     1.73200
Fe333      Fe  0.29475013  0.56145505  0.97580516     1.54400
O334        O  0.25116804  0.54191438  0.97992517    -0.81500
O335        O  0.32999749  0.62622154  0.95925711    -0.79900
O336        O  0.24486515  0.50631987  0.96151083    -0.84100
O337        O  0.30780711  0.49835303  0.94978115    -0.78900
O338        O  0.27871860  0.61135781  0.98109606    -0.80700
O339        O  0.32028215  0.59128125  0.93150524    -0.83400
C340        C  0.31807849  0.49171740  0.96213217     0.97300
C341        C  0.23804255  0.51589223  0.97409376     1.04800
O342        O  0.28557056  0.56744268  0.95572552    -1.12400
O343        O  0.25206855  0.60721820  0.93354767    -0.74800
O344        O  0.23109338  0.55593866  0.93925143    -0.78300
O345        O  0.31223762  0.51097343  0.97287989    -0.79000
C346        C  0.22888873  0.58633821  0.93399448     0.96200
O347        O  0.29323478  0.54368759  0.92608960    -0.77000
O348        O  0.26307546  0.63700565  0.96109409    -0.82200
C349        C  0.34550104  0.61144089  0.96915140     0.98900
C350        C  0.26615042  0.63676390  0.97449833     1.04800
O351        O  0.33911012  0.58087553  0.97351312    -0.77800
C352        C  0.31446534  0.56585383  0.92320810     1.03100
Fe353      Fe  0.71812683  0.46595901  0.05470413     1.65800
Fe354      Fe  0.69498678  0.38233415  0.05551051     1.73200
Fe355      Fe  0.68318947  0.43053713  0.02582528     1.54400
O356        O  0.66833905  0.48177862  0.02860649    -0.81500
O357        O  0.71874596  0.35658551  0.03990798    -0.79900
O358        O  0.68033404  0.49677072  0.05090238    -0.84100
O359        O  0.73932633  0.48371174  0.03615399    -0.78900
O360        O  0.63964155  0.41253324  0.03156158    -0.80700
O361        O  0.73695558  0.38800665  0.06644086    -0.83400
C362        C  0.74153266  0.47385705  0.02328041     0.97300
C363        C  0.66808752  0.50323111  0.03893603     1.04800
O364        O  0.69873120  0.42639013  0.04526623    -1.12400
O365        O  0.67026629  0.40597527  0.07146594    -0.74800
O366        O  0.69887145  0.45390415  0.07463246    -0.78300
O367        O  0.72519806  0.44904318  0.01826162    -0.79000
C368        C  0.67788836  0.43255728  0.07874643     0.96200
O369        O  0.75759823  0.43767210  0.05850630    -0.77000
O370        O  0.65370229  0.36856214  0.04560581    -0.82200
C371        C  0.71102851  0.35507797  0.02691784     0.98900
C372        C  0.63478588  0.38254157  0.03691186     1.04800
O373        O  0.69646426  0.37971389  0.02065500    -0.77800
C374        C  0.76019837  0.40772174  0.06407899     1.03100
Fe375      Fe  0.52285960  0.46938712  0.19598510     1.65800
Fe376      Fe  0.54102078  0.38388177  0.19583374     1.73200
Fe377      Fe  0.55369029  0.43196552  0.22538636     1.54400
O378        O  0.57282728  0.48161210  0.22249087    -0.81500
O379        O  0.51414047  0.36079244  0.21108579    -0.79900
O380        O  0.56194156  0.49824787  0.20026589    -0.84100
O381        O  0.50112580  0.48962397  0.21413202    -0.78900
O382        O  0.59621327  0.40992098  0.22057749    -0.80700
O383        O  0.50046151  0.39271195  0.18404511    -0.83400
C384        C  0.49773583  0.47990744  0.22701503     0.97300
C385        C  0.57503893  0.50311595  0.21218610     1.04800
O386        O  0.53940741  0.42858450  0.20578349    -1.12400
O387        O  0.56836080  0.40504300  0.18007814    -0.74800
O388        O  0.54315664  0.45506866  0.17653705    -0.78300
O389        O  0.51246496  0.45392108  0.23201082    -0.79000
C390        C  0.56292530  0.43209808  0.17259607     0.96200
O391        O  0.48207302  0.44354879  0.19145925    -0.77000
O392        O  0.58052581  0.36642301  0.20669672    -0.82200
C393        C  0.51990957  0.35965375  0.22430436     0.98900
C394        C  0.59959697  0.37928730  0.21563586     1.04800
O395        O  0.53607853  0.38276448  0.23069724    -0.77800
C396        C  0.47792527  0.41390213  0.18570506     1.03100
Fe397      Fe  0.28029773  0.03709585  0.44642182     1.65800
Fe398      Fe  0.29918620  0.12215238  0.44537152     1.73200
Fe399      Fe  0.30950705  0.07640675  0.47568513     1.54400
O400        O  0.26747623  0.05600640  0.48217730    -0.81500
O401        O  0.33853527  0.13949254  0.45642169    -0.79900
O402        O  0.25805388  0.01795374  0.46475569    -0.84100
O403        O  0.31953923  0.00912514  0.45121037    -0.78900
O404        O  0.29326987  0.12712675  0.47997969    -0.80700
O405        O  0.32712632  0.09962340  0.43020661    -0.83400
C406        C  0.33132584  0.00442635  0.46341445     0.97300
C407        C  0.25397477  0.02885081  0.47744628     1.04800
O408        O  0.29647654  0.07841148  0.45587921    -1.12400
O409        O  0.25921551  0.11265943  0.43329820    -0.74800
O410        O  0.23986111  0.06281735  0.44136934    -0.78300
O411        O  0.32737298  0.02568110  0.47370915    -0.79000
C412        C  0.23637890  0.09193832  0.43508367     0.96200
O413        O  0.30101661  0.05001475  0.42687130    -0.77000
O414        O  0.27154975  0.14666634  0.45995747    -0.82200
C415        C  0.35711064  0.12667000  0.46560393     0.98900
C416        C  0.27825551  0.15027567  0.47298518     1.04800
O417        O  0.35276192  0.09659569  0.47095617    -0.77800
C418        C  0.32130810  0.07241057  0.42292329     1.03100
Fe419      Fe  0.46762806  0.02608286  0.30435759     1.65800
Fe420      Fe  0.45066584  0.11223626  0.30418181     1.73200
Fe421      Fe  0.43507735  0.06314094  0.27513075     1.54400
O422        O  0.47492821  0.03896127  0.26779945    -0.81500
O423        O  0.40935423  0.12909425  0.29459873    -0.79900
O424        O  0.48684905  0.00397800  0.28595833    -0.84100
O425        O  0.42718091  0.99930100  0.30123569    -0.78900
O426        O  0.45311939  0.11143044  0.26910617    -0.80700
O427        O  0.42530397  0.09166727  0.32074806    -0.83400
C428        C  0.41258327  0.99444360  0.28971601     0.97300
C429        C  0.48887645  0.01247737  0.27289190     1.04800
O430        O  0.45122374  0.06715778  0.29446656    -1.12400
O431        O  0.49300361  0.10318870  0.31462122    -0.74800
O432        O  0.50926097  0.05027968  0.30810253    -0.78300
O433        O  0.41508718  0.01454016  0.27897711    -0.79000
C434        C  0.51424593  0.07999803  0.31363115     0.96200
O435        O  0.45029573  0.04126559  0.32420034    -0.77000
O436        O  0.47519131  0.13571823  0.28814047    -0.82200
C437        C  0.38966913  0.11691741  0.28578794     0.98900
C438        C  0.46855705  0.13590721  0.27498996     1.04800
O439        O  0.39335671  0.08690806  0.28022649    -0.77800
C440        C  0.43094331  0.06457968  0.32811977     1.03100
Fe441      Fe  0.02840363  0.47377180  0.69572190     1.65800
Fe442      Fe  0.05066917  0.38873968  0.69564814     1.73200
Fe443      Fe  0.05849970  0.43700497  0.72574469     1.54400
O444        O  0.07672267  0.48664870  0.72324901    -0.81500
O445        O  0.02578027  0.36235040  0.71074356    -0.79900
O446        O  0.06527897  0.50498640  0.70130443    -0.84100
O447        O  0.00312592  0.49111938  0.71331812    -0.78900
O448        O  0.10215806  0.41616498  0.72200982    -0.80700
O449        O  0.00940525  0.39398679  0.68422606    -0.83400
C450        C  0.99946439  0.48133714  0.72615156     0.97300
C451        C  0.07897313  0.50861011  0.71316258     1.04800
O452        O  0.04594799  0.43326563  0.70574846    -1.12400
O453        O  0.07642417  0.41200902  0.67979127    -0.74800
O454        O  0.05172491  0.46261153  0.67666396    -0.78300
O455        O  0.01625793  0.45781869  0.73181334    -0.79000
C456        C  0.07163805  0.43980232  0.67272637     0.96200
O457        O  0.98952266  0.44600047  0.68971128    -0.77000
O458        O  0.09136217  0.37467032  0.70622495    -0.82200
C459        C  0.02882040  0.36295599  0.72414516     0.98900
C460        C  0.10848190  0.38731358  0.71598637     1.04800
O461        O  0.04188140  0.38780936  0.73082952    -0.77800
C462        C  0.98677207  0.41540494  0.68466723     1.03100
Fe463      Fe  0.21782348  0.48025920  0.55370807     1.65800
Fe464      Fe  0.20008880  0.39432862  0.55257756     1.73200
Fe465      Fe  0.18650298  0.44544800  0.52388160     1.54400
O466        O  0.16806614  0.49504492  0.52749343    -0.81500
O467        O  0.22531635  0.37182383  0.53647554    -0.79900
O468        O  0.17863864  0.50905925  0.55000849    -0.84100
O469        O  0.23937343  0.50177544  0.53572927    -0.78900
O470        O  0.14396171  0.42331994  0.52865974    -0.80700
O471        O  0.24189836  0.40150455  0.56347820    -0.83400
C472        C  0.24270468  0.49307988  0.52272080     0.97300
C473        C  0.16604822  0.51548683  0.53812840     1.04800
O474        O  0.20133771  0.44010162  0.54336957    -1.12400
O475        O  0.17437743  0.41385029  0.56926418    -0.74800
O476        O  0.19789864  0.46479972  0.57308148    -0.78300
O477        O  0.22779993  0.46766351  0.51734133    -0.79000
C478        C  0.17888649  0.44084408  0.57684520     0.96200
O479        O  0.25863519  0.45458069  0.55779567    -0.77000
O480        O  0.15907184  0.37925448  0.54243292    -0.82200
C481        C  0.21912161  0.37237326  0.52328834     0.98900
C482        C  0.13963033  0.39307524  0.53388671     1.04800
O483        O  0.20328022  0.39677519  0.51759624    -0.77800
C484        C  0.26359161  0.42400077  0.56247871     1.03100
Fe485      Fe  0.97000032  0.03685675  0.80726080     1.65800
Fe486      Fe  0.95026500  0.12211385  0.80572833     1.73200
Fe487      Fe  0.94254257  0.07083063  0.77669731     1.54400
O488        O  0.98550252  0.05080826  0.77154313    -0.81500
O489        O  0.91030540  0.13562711  0.79433908    -0.79900
O490        O  0.99334750  0.01548262  0.78996631    -0.84100
O491        O  0.93142386  0.00728553  0.80272964    -0.78900
O492        O  0.95837695  0.12011558  0.77100605    -0.80700
O493        O  0.92300994  0.10138509  0.82160555    -0.83400
C494        C  0.92146834  0.00022910  0.79035934     0.97300
C495        C  0.99944344  0.02527042  0.77735959     1.04800
O496        O  0.95400967  0.07655763  0.79655614    -1.12400
O497        O  0.99093172  0.11610086  0.81770131    -0.74800
O498        O  0.00980559  0.06395378  0.81172476    -0.78300
O499        O  0.92555828  0.02047381  0.77978152    -0.79000
C500        C  0.01350576  0.09475977  0.81640281     0.96200
O501        O  0.94871334  0.05213707  0.82617774    -0.77000
O502        O  0.97688825  0.14578343  0.79045744    -0.82200
C503        C  0.89276629  0.12105798  0.78514868     0.98900
C504        C  0.97253415  0.14510247  0.77712984     1.04800
O505        O  0.89873830  0.09093191  0.78016971    -0.77800
C506        C  0.92829982  0.07495516  0.82940493     1.03100
Fe507      Fe  0.77288967  0.02688458  0.94531323     1.65800
Fe508      Fe  0.78786994  0.11291047  0.94580336     1.73200
Fe509      Fe  0.79637654  0.06530650  0.97576460     1.54400
O510        O  0.75483665  0.04128306  0.98072686    -0.81500
O511        O  0.82488579  0.13195683  0.95798443    -0.79900
O512        O  0.75057308  0.00394933  0.96268702    -0.84100
O513        O  0.81319393  0.00113777  0.95055745    -0.78900
O514        O  0.77600759  0.11339503  0.98015366    -0.80700
O515        O  0.81866789  0.09278701  0.93122909    -0.83400
C516        C  0.82408160  0.99637799  0.96296803     0.97300
C517        C  0.74358163  0.01381355  0.97520086     1.04800
O518        O  0.78597060  0.06827388  0.95570862    -1.12400
O519        O  0.74997405  0.10173846  0.93265569    -0.74800
O520        O  0.73148647  0.05074029  0.94004074    -0.78300
O521        O  0.81786688  0.01651580  0.97341875    -0.79000
C522        C  0.72756419  0.08020030  0.93409331     0.96200
O523        O  0.79405155  0.04318389  0.92641093    -0.77000
O524        O  0.75737077  0.13516410  0.95983937    -0.82200
C525        C  0.84250563  0.12050390  0.96781264     0.98900
C526        C  0.76058641  0.13623390  0.97321765     1.04800
O527        O  0.83872877  0.08997779  0.97292957    -0.77800
C528        C  0.81413376  0.06644294  0.92325551     1.03100
Fe529      Fe  0.96264306  0.71823366  0.94755288     1.65800
Fe530      Fe  0.94451408  0.63221575  0.94819877     1.73200
Fe531      Fe  0.93176526  0.68247169  0.97740733     1.54400
O532        O  0.97252389  0.70622436  0.98402360    -0.81500
O533        O  0.90357755  0.61704494  0.95816153    -0.79900
O534        O  0.98417487  0.73945198  0.96534138    -0.84100
O535        O  0.92338795  0.74751778  0.95165934    -0.78900
O536        O  0.94996078  0.63437244  0.98338612    -0.80700
O537        O  0.91885144  0.65263932  0.93166049    -0.83400
C538        C  0.91002089  0.75278924  0.96353886     0.97300
C539        C  0.98700449  0.73170631  0.97841543     1.04800
O540        O  0.94614872  0.67772383  0.95776569    -1.12400
O541        O  0.98626544  0.63929903  0.93727300    -0.74800
O542        O  0.00351822  0.69210651  0.94344268    -0.78300
O543        O  0.91208173  0.73140677  0.97387233    -0.79000
C544        C  0.00804536  0.66149073  0.93870217     0.96200
O545        O  0.94302246  0.70341949  0.92810147    -0.77000
O546        O  0.96949433  0.60843867  0.96411946    -0.82200
C547        C  0.88464092  0.62951434  0.96719587     0.98900
C548        C  0.96474746  0.60952640  0.97743672     1.04800
O549        O  0.88944247  0.65900293  0.97306407    -0.77800
C550        C  0.92396591  0.67973432  0.92421168     1.03100
Fe551      Fe  0.78104523  0.72705000  0.80428537     1.65800
Fe552      Fe  0.79647377  0.64104070  0.80412462     1.73200
Fe553      Fe  0.80953902  0.68913654  0.77454890     1.54400
O554        O  0.76889951  0.71305285  0.76817386    -0.81500
O555        O  0.83533179  0.62262312  0.79307606    -0.79900
O556        O  0.76038421  0.74942607  0.78623911    -0.84100
O557        O  0.82161574  0.75305417  0.80026991    -0.78900
O558        O  0.79071029  0.64037059  0.76936052    -0.80700
O559        O  0.82466993  0.66097595  0.81984009    -0.83400
C560        C  0.83435421  0.75820522  0.78829557     0.97300
C561        C  0.75614254  0.74013239  0.77337044     1.04800
O562        O  0.79581997  0.68582464  0.79424250    -1.12400
O563        O  0.75643103  0.65151030  0.81601223    -0.74800
O564        O  0.73945098  0.70314962  0.80843151    -0.78300
O565        O  0.83004396  0.73823764  0.77760541    -0.79000
C566        C  0.73462988  0.67354392  0.81405444     0.96200
O567        O  0.79999753  0.71106440  0.82383402    -0.77000
O568        O  0.76862158  0.61869800  0.78899334    -0.82200
C569        C  0.85416308  0.63425257  0.78376867     0.98900
C570        C  0.77455367  0.61723509  0.77579944     1.04800
O571        O  0.85144603  0.66512453  0.77889190    -0.77800
C572        C  0.81917944  0.68738019  0.82766952     1.03100
Fe573      Fe  0.02304070  0.27538373  0.05581520     1.65800
Fe574      Fe  0.04380859  0.36018671  0.05616170     1.73200
Fe575      Fe  0.04928094  0.31348205  0.02571130     1.54400
O576        O  0.06624357  0.26267311  0.02731130    -0.81500
O577        O  0.01622563  0.38629571  0.04192595    -0.79900
O578        O  0.06106449  0.24642318  0.05001598    -0.84100
O579        O  0.99782057  0.25719261  0.03819911    -0.78900
O580        O  0.09334811  0.33250634  0.02928569    -0.80700
O581        O  0.00421735  0.35252451  0.06877069    -0.83400
C582        C  0.99158599  0.26873283  0.02579690     0.97300
C583        C  0.07128115  0.24161802  0.03752585     1.04800
O584        O  0.03881157  0.31630918  0.04585370    -1.12400
O585        O  0.07226963  0.33683074  0.07106541    -0.74800
O586        O  0.04607766  0.28751317  0.07490783    -0.78300
O587        O  0.00601313  0.29450019  0.02039792    -0.79000
C588        C  0.06682770  0.30974277  0.07848903     0.96200
O589        O  0.98393090  0.30211087  0.06172584    -0.77000
O590        O  0.08253849  0.37564366  0.04431063    -0.82200
C591        C  0.01998574  0.38783315  0.02855976     0.98900
C592        C  0.09904805  0.36252473  0.03439478     1.04800
O593        O  0.03370898  0.36397098  0.02150110    -0.77800
C594        C  0.98109015  0.33195422  0.06745568     1.03100
Fe595      Fe  0.21270504  0.27837465  0.19831240     1.65800
Fe596      Fe  0.19230996  0.36325474  0.19846524     1.73200
Fe597      Fe  0.18464953  0.31491529  0.22851230     1.54400
O598        O  0.16608738  0.26515479  0.22570309    -0.81500
O599        O  0.21816645  0.38845349  0.21343661    -0.79900
O600        O  0.17357046  0.25001454  0.20295699    -0.84100
O601        O  0.23530542  0.25739551  0.21613075    -0.78900
O602        O  0.14113622  0.33609925  0.22497092    -0.80700
O603        O  0.23360086  0.35654605  0.18693398    -0.83400
C604        C  0.24064279  0.26707975  0.22885120     0.97300
C605        C  0.16152525  0.24501061  0.21512176     1.04800
O606        O  0.19635427  0.31883577  0.20849509    -1.12400
O607        O  0.16582115  0.34108723  0.18270028    -0.74800
O608        O  0.19214816  0.29226419  0.17877971    -0.78300
O609        O  0.22695655  0.29337401  0.23425811    -0.79000
C610        C  0.17190760  0.31486629  0.17495902     0.96200
O611        O  0.25296022  0.30514541  0.19380944    -0.77000
O612        O  0.15146206  0.37753822  0.20911441    -0.82200
C613        C  0.21447302  0.38913884  0.22677482     0.98900
C614        C  0.13403265  0.36443081  0.21871738     1.04800
O615        O  0.20152047  0.36440389  0.23365563    -0.77800
C616        C  0.25640137  0.33576690  0.18883867     1.03100
Fe617      Fe  0.27664464  0.71947685  0.30588165     1.65800
Fe618      Fe  0.29446969  0.63417296  0.30573396     1.73200
Fe619      Fe  0.30446999  0.68240528  0.27587772     1.54400
O620        O  0.26241754  0.70411003  0.26990935    -0.81500
O621        O  0.33404188  0.61775591  0.29463990    -0.79900
O622        O  0.25430590  0.74037814  0.28797198    -0.84100
O623        O  0.31620763  0.74677971  0.30136951    -0.78900
O624        O  0.28724959  0.63299605  0.27092097    -0.80700
O625        O  0.32232504  0.65518479  0.32133298    -0.83400
C626        C  0.32720839  0.75269945  0.28911068     0.97300
C627        C  0.24869079  0.73040084  0.27530111     1.04800
O628        O  0.29212833  0.67874794  0.29577875    -1.12400
O629        O  0.25391781  0.64278928  0.31755814    -0.74800
O630        O  0.23592847  0.69413174  0.31038834    -0.78300
O631        O  0.32302316  0.73238213  0.27854723    -0.79000
C632        C  0.23146998  0.66401719  0.31564994     0.96200
O633        O  0.29719368  0.70497735  0.32530085    -0.77000
O634        O  0.26708120  0.61079615  0.29084061    -0.82200
C635        C  0.35233852  0.63075123  0.28536194     0.98900
C636        C  0.27177095  0.60972765  0.27757114     1.04800
O637        O  0.34752861  0.66062774  0.27985036    -0.77800
C638        C  0.31729203  0.68201523  0.32892978     1.03100
Fe639      Fe  0.47118001  0.73074198  0.44693483     1.65800
Fe640      Fe  0.45256776  0.64543798  0.44706563     1.73200
Fe641      Fe  0.44469649  0.69298355  0.47718566     1.54400
O642        O  0.48692424  0.71449110  0.48264523    -0.81500
O643        O  0.41300684  0.62949995  0.45829400    -0.79900
O644        O  0.49479707  0.75106878  0.46463152    -0.84100
O645        O  0.43217721  0.75894626  0.45220079    -0.78900
O646        O  0.46247753  0.64352865  0.48190577    -0.80700
O647        O  0.42437450  0.66689816  0.43177077    -0.83400
C648        C  0.42095542  0.76385339  0.46453703     0.97300
C649        C  0.50058832  0.74076384  0.47724882     1.04800
O650        O  0.45583735  0.68984836  0.45710333    -1.12400
O651        O  0.49263871  0.65355025  0.43486615    -0.74800
O652        O  0.51159656  0.70477219  0.44168883    -0.78300
O653        O  0.42557392  0.74286137  0.47485952    -0.79000
C654        C  0.51537064  0.67456988  0.43633369     0.96200
O655        O  0.44918916  0.71676879  0.42770036    -0.77000
O656        O  0.48039093  0.62135175  0.46160463    -0.82200
C657        C  0.39524958  0.64252987  0.46777665     0.98900
C658        C  0.47705639  0.62006667  0.47497082     1.04800
O659        O  0.40142382  0.67138624  0.47382922    -0.77800
C660        C  0.42935202  0.69356225  0.42404722     1.03100
Fe661      Fe  0.72122503  0.28337576  0.69556509     1.65800
Fe662      Fe  0.70196223  0.36855723  0.69636213     1.73200
Fe663      Fe  0.69309988  0.31940913  0.72584430     1.54400
O664        O  0.67383488  0.26965252  0.72278057    -0.81500
O665        O  0.72959175  0.39160399  0.71132922    -0.79900
O666        O  0.68197506  0.25509823  0.70004804    -0.84100
O667        O  0.74349553  0.26140701  0.71332091    -0.78900
O668        O  0.64997190  0.34103646  0.72234643    -0.80700
O669        O  0.74204358  0.36115870  0.68424249    -0.83400
C670        C  0.74804607  0.27082263  0.72616088     0.97300
C671        C  0.66920857  0.24992661  0.71203828     1.04800
O672        O  0.70518580  0.32365017  0.70595639    -1.12400
O673        O  0.67406174  0.34764303  0.68071836    -0.74800
O674        O  0.70025508  0.29868528  0.67639315    -0.78300
O675        O  0.73516115  0.29783684  0.73126949    -0.79000
C676        C  0.67997972  0.32145632  0.67283061     0.96200
O677        O  0.76177670  0.30968783  0.69076247    -0.77000
O678        O  0.66268457  0.38425810  0.70775977    -0.82200
C679        C  0.72520051  0.39297759  0.72462071     0.98900
C680        C  0.64515858  0.37137061  0.71732302     1.04800
O681        O  0.71056217  0.36890866  0.73125939    -0.77800
C682        C  0.76478002  0.34002886  0.68543350     1.03100
Fe683      Fe  0.53080887  0.28569456  0.55357069     1.65800
Fe684      Fe  0.54832430  0.37158726  0.55376858     1.73200
Fe685      Fe  0.56192775  0.32311624  0.52438119     1.54400
O686        O  0.57942474  0.27288428  0.52722747    -0.81500
O687        O  0.52351410  0.39550503  0.53789040    -0.79900
O688        O  0.57066962  0.25795256  0.54979020    -0.84100
O689        O  0.51017629  0.26539800  0.53515327    -0.78900
O690        O  0.60467366  0.34387955  0.52952252    -0.80700
O691        O  0.50602108  0.36357472  0.56419333    -0.83400
C692        C  0.50574566  0.27638549  0.52250395     0.97300
C693        C  0.58274137  0.25221722  0.53771790     1.04800
O694        O  0.54730202  0.32676225  0.54393335    -1.12400
O695        O  0.57335998  0.35080722  0.57041910    -0.74800
O696        O  0.54929857  0.29985361  0.57336871    -0.78300
O697        O  0.52006116  0.30288343  0.51770540    -0.79000
C698        C  0.56772064  0.32363797  0.57777236     0.96200
O699        O  0.48976809  0.31097730  0.55739686    -0.77000
O700        O  0.58975578  0.38675256  0.54396670    -0.82200
C701        C  0.53017259  0.39619129  0.52477828     0.98900
C702        C  0.60893599  0.37382689  0.53507249     1.04800
O703        O  0.54643501  0.37263918  0.51879559    -0.77800
C704        C  0.48438219  0.34143990  0.56205950     1.03100
C705        C  0.65608820  0.29569960  0.63478409    -0.22300
C706        C  0.62982829  0.31686487  0.63277112     0.09600
C707        C  0.61942495  0.33829392  0.64400034     0.10000
C708        C  0.63586809  0.33857403  0.65692004    -0.17300
C709        C  0.66277457  0.31799508  0.65900107    -0.27700
C710        C  0.67276720  0.29591620  0.64767990     0.18400
C711        C  0.61452243  0.31761305  0.61856990     0.12300
C712        C  0.59131112  0.36148364  0.64222416    -0.12000
H713        H  0.62767206  0.35536288  0.66541477     0.12600
C714        C  0.70135317  0.27315068  0.64876642    -0.22900
H715        H  0.66389248  0.27935662  0.62606130     0.08300
C716        C  0.62684034  0.33774926  0.60733575     0.04600
C717        C  0.61126661  0.33868919  0.59421213    -0.20100
C718        C  0.58344436  0.31998508  0.59191357    -0.12400
C719        C  0.57120638  0.29957733  0.60327322     0.13300
C720        C  0.58697701  0.29869378  0.61641004    -0.22800
C721        C  0.65620004  0.35878747  0.60929162    -0.05900
H722        H  0.62099403  0.35430298  0.58567161     0.14800
C723        C  0.54114066  0.27950717  0.60191628    -0.16100
H724        H  0.57762497  0.28340994  0.62513916     0.09200
H725        H  0.70598425  0.25875459  0.63872645     0.07000
H726        H  0.69814988  0.25332130  0.65727079     0.08200
H727        H  0.72209540  0.28955534  0.65104958     0.07300
H728        H  0.57049037  0.34523959  0.63992396     0.02100
H729        H  0.59518813  0.37999596  0.63329216     0.02600
H730        H  0.58649357  0.37701868  0.65195890     0.06100
H731        H  0.66244144  0.37356861  0.59952684     0.05100
H732        H  0.67587981  0.34109060  0.61190965    -0.00700
H733        H  0.65298611  0.37787753  0.61807056     0.00800
H734        H  0.54363589  0.25858883  0.59381276     0.04500
H735        H  0.52199775  0.29756851  0.59888099     0.06400
H736        H  0.53446919  0.26668129  0.61207213     0.07300
C737        C  0.50545994  0.55542183  0.50297499    -0.22300
C738        C  0.50338911  0.52413736  0.49526576     0.09600
C739        C  0.49428478  0.52465302  0.48091220     0.10000
C740        C  0.48716515  0.55668088  0.47455000    -0.17300
C741        C  0.48820706  0.58820164  0.48228172    -0.27700
C742        C  0.49782827  0.58762792  0.49667901     0.18400
C743        C  0.51018305  0.49086882  0.50249215     0.12300
C744        C  0.49113879  0.49132953  0.47243493    -0.12000
H745        H  0.47952135  0.55683609  0.46356692     0.12600
C746        C  0.50062698  0.62058871  0.50538770    -0.22900
H747        H  0.51269539  0.55448295  0.51401264     0.08300
C748        C  0.53991232  0.47547001  0.50168549     0.04600
C749        C  0.54498372  0.44332327  0.50839216    -0.20100
C750        C  0.52147081  0.42721639  0.51644690    -0.12400
C751        C  0.49163875  0.44270573  0.51726101     0.13300
C752        C  0.48626351  0.47431333  0.51008314    -0.22800
C753        C  0.56647610  0.49347402  0.49416664    -0.05900
H754        H  0.56791877  0.43147600  0.50789664     0.14800
C755        C  0.46537207  0.42571439  0.52536970    -0.16100
H756        H  0.46343154  0.48641342  0.51048633     0.09200
H757        H  0.51618476  0.63949183  0.49990781     0.07000
H758        H  0.51055716  0.61524560  0.51607433     0.08200
H759        H  0.47734743  0.63252047  0.50700134     0.07300
H760        H  0.47366994  0.47396516  0.47753128     0.02100
H761        H  0.51380550  0.47748175  0.47193604     0.02600
H762        H  0.48344487  0.49653334  0.46135981     0.06100
H763        H  0.58832282  0.47796855  0.49479557     0.05100
H764        H  0.57083099  0.51934451  0.49915953    -0.00700
H765        H  0.56078662  0.49740022  0.48277937     0.00800
H766        H  0.47091435  0.42472473  0.53688067     0.04500
H767        H  0.46153865  0.39872616  0.52135212     0.06400
H768        H  0.44324752  0.44048969  0.52416124     0.07300
C769        C  0.37771210  0.67364069  0.35891341    -0.22300
C770        C  0.36421809  0.69436037  0.36953614     0.09600
C771        C  0.33613335  0.71209565  0.36664952     0.10000
C772        C  0.32177396  0.70804866  0.35329086    -0.17300
C773        C  0.33463236  0.68636382  0.34266948    -0.27700
C774        C  0.36345704  0.66932978  0.34555269     0.18400
C775        C  0.37929215  0.69554048  0.38380427     0.12300
C776        C  0.32105606  0.73477732  0.37778394    -0.12000
H777        H  0.29994423  0.72137790  0.35127938     0.12600
C778        C  0.37987108  0.64692944  0.33467112    -0.22900
H779        H  0.39939783  0.66026295  0.36121667     0.08300
C780        C  0.37468090  0.66847905  0.39375531     0.04600
C781        C  0.39075762  0.66922218  0.40674917    -0.20100
C782        C  0.41174106  0.69637730  0.41023288    -0.12400
C783        C  0.41552028  0.72421222  0.40028903     0.13300
C784        C  0.39929264  0.72326316  0.38723854    -0.22800
C785        C  0.35276737  0.63864244  0.39062446    -0.05900
H786        H  0.38704843  0.64789473  0.41415490     0.14800
C787        C  0.43656629  0.75497602  0.40312870    -0.16100
H788        H  0.40252753  0.74407478  0.37953537     0.09200
H789        H  0.40294274  0.63782987  0.33852381     0.07000
H790        H  0.38379003  0.66220666  0.32478314     0.08200
H791        H  0.36586273  0.62322840  0.33232386     0.07300
H792        H  0.33712136  0.75627627  0.38081362     0.02100
H793        H  0.31560154  0.71884220  0.38734007     0.02600
H794        H  0.29905789  0.74666490  0.37388043     0.06100
H795        H  0.35146804  0.61979705  0.39960140     0.05100
H796        H  0.36080334  0.62419530  0.38106653    -0.00700
H797        H  0.32899420  0.64900205  0.38867287     0.00800
H798        H  0.43606001  0.77426628  0.39428991     0.04500
H799        H  0.46099035  0.74592447  0.40429429     0.06400
H800        H  0.42892201  0.76874631  0.41292134     0.07300
C801        C  0.22628073  0.52988022  0.26589684    -0.22300
C802        C  0.24844003  0.51372445  0.25716430     0.09600
C803        C  0.27721681  0.53009490  0.25448940     0.10000
C804        C  0.28347695  0.56236592  0.26084572    -0.17300
C805        C  0.26169018  0.57833303  0.26988184    -0.27700
C806        C  0.23262207  0.56206343  0.27241937     0.18400
C807        C  0.23992173  0.48123487  0.24981571     0.12300
C808        C  0.30128111  0.51346287  0.24497160    -0.12000
H809        H  0.30590699  0.57467339  0.25910718     0.12600
C810        C  0.20799639  0.57882218  0.28162715    -0.22900
H811        H  0.20397477  0.51725192  0.26755370     0.08300
C812        C  0.24581570  0.44796366  0.25570115     0.04600
C813        C  0.23770127  0.41801869  0.24790659    -0.20100
C814        C  0.22402046  0.42100026  0.23440297    -0.12400
C815        C  0.21760194  0.45466880  0.22872378     0.13300
C816        C  0.22578448  0.48430957  0.23653227    -0.22800
C817        C  0.26042770  0.44423235  0.27017182    -0.05900
H818        H  0.24209455  0.39227930  0.25232329     0.14800
C819        C  0.20097146  0.45985656  0.21474196    -0.16100
H820        H  0.22113885  0.51017837  0.23228130     0.09200
H821        H  0.18600903  0.56351517  0.28157001     0.07000
H822        H  0.20271744  0.60553086  0.27763210     0.08200
H823        H  0.21602322  0.58039607  0.29281610     0.07300
H824        H  0.29155639  0.50986217  0.23413775     0.02100
H825        H  0.30819205  0.48759392  0.24932291     0.02600
H826        H  0.32255127  0.52985661  0.24407531     0.06100
H827        H  0.26336610  0.41631943  0.27319951     0.05100
H828        H  0.24543427  0.45702611  0.27826531    -0.00700
H829        H  0.28371181  0.45682576  0.27024415     0.00800
H830        H  0.19588801  0.48790323  0.21264719     0.04500
H831        H  0.17845245  0.44565501  0.21487918     0.06400
H832        H  0.21561276  0.45026701  0.20584043     0.07300
C833        C  0.11798211  0.32900661  0.14270063    -0.22300
C834        C  0.12752320  0.30203673  0.13363607     0.09600
C835        C  0.15095276  0.27877303  0.13822778     0.10000
C836        C  0.16454437  0.28330674  0.15174571    -0.17300
C837        C  0.15547412  0.31077067  0.16090359    -0.27700
C838        C  0.13137486  0.33378437  0.15620944     0.18400
C839        C  0.11305660  0.29977626  0.11923987     0.12300
C840        C  0.16143933  0.24902005  0.12888679    -0.12000
H841        H  0.18265648  0.26534545  0.15507638     0.12600
C842        C  0.11924984  0.36363704  0.16514710    -0.22900
H843        H  0.09997324  0.34677390  0.13905350     0.08300
C844        C  0.08232567  0.28755592  0.11730514     0.04600
C845        C  0.06833289  0.28992315  0.10379979    -0.20100
C846        C  0.08413512  0.30470320  0.09213519    -0.12400
C847        C  0.11555742  0.31537226  0.09397913     0.13300
C848        C  0.12950213  0.31279373  0.10749444    -0.22800
C849        C  0.06423941  0.27222027  0.12953618    -0.05900
H850        H  0.04447038  0.28129081  0.10248214     0.14800
C851        C  0.13482227  0.32895137  0.08175857    -0.16100
H852        H  0.15317500  0.32189194  0.10901877     0.09200
H853        H  0.09998185  0.37790525  0.15980589     0.07000
H854        H  0.13808663  0.38292395  0.16711122     0.08200
H855        H  0.10999643  0.35347398  0.17537122     0.07300
H856        H  0.17131079  0.25944855  0.11883543     0.02100
H857        H  0.14130415  0.23186432  0.12639323     0.02600
H858        H  0.17959492  0.23283172  0.13413285     0.06100
H859        H  0.04077635  0.26324075  0.12617569     0.05100
H860        H  0.06116208  0.29214195  0.13800409    -0.00700
H861        H  0.07701183  0.24939337  0.13394705     0.00800
H862        H  0.12549554  0.35437724  0.07797903     0.04500
H863        H  0.13468196  0.30966292  0.07292548     0.06400
H864        H  0.15943058  0.33334442  0.08491863     0.07300
C865        C  0.73210307  0.53564621  0.76322553    -0.22300
C866        C  0.75639359  0.51838489  0.75612016     0.09600
C867        C  0.78588813  0.53444110  0.75509610     0.10000
C868        C  0.79018762  0.56778834  0.76090354    -0.17300
C869        C  0.76604648  0.58509595  0.76810230    -0.27700
C870        C  0.73658600  0.56878481  0.76934475     0.18400
C871        C  0.74966408  0.48541417  0.74847184     0.12300
C872        C  0.81311302  0.51600792  0.74826456    -0.12000
H873        H  0.81301556  0.57986381  0.76032836     0.12600
C874        C  0.70923243  0.58585559  0.77662191    -0.22900
H875        H  0.70932459  0.52346662  0.76375472     0.08300
C876        C  0.74444404  0.45337468  0.75551630     0.04600
C877        C  0.73751661  0.42336434  0.74746240    -0.20100
C878        C  0.73592263  0.42461551  0.73250108    -0.12400
C879        C  0.74191707  0.45706103  0.72552342     0.13300
C880        C  0.74834486  0.48682721  0.73365832    -0.22800
C881        C  0.74643046  0.45082921  0.77146880    -0.05900
H882        H  0.73307124  0.39887896  0.75291832     0.14800
C883        C  0.74093698  0.46150740  0.70956864    -0.16100
H884        H  0.75225721  0.51174376  0.72842305     0.09200
H885        H  0.70221237  0.56997087  0.78597876     0.07000
H886        H  0.68932856  0.58733080  0.76911384     0.08200
H887        H  0.71417372  0.61288690  0.78021723     0.07300
H888        H  0.80836655  0.51114827  0.73684751     0.02100
H889        H  0.81726814  0.49064723  0.75371803     0.02600
H890        H  0.83481352  0.53174058  0.74898955     0.06100
H891        H  0.74240418  0.42365284  0.77525007     0.05100
H892        H  0.72860260  0.46794190  0.77643019    -0.00700
H893        H  0.76991078  0.45916492  0.77505972     0.00800
H894        H  0.74558952  0.48894955  0.70628471     0.04500
H895        H  0.71757154  0.45446124  0.70543323     0.06400
H896        H  0.75909845  0.44499891  0.70452588     0.07300
C897        C  0.99117435  0.45293140  0.00101713    -0.22300
C898        C  0.00121538  0.48434463  0.00719157     0.09600
C899        C  0.01637888  0.48393704  0.02044777     0.10000
C900        C  0.02098850  0.45191990  0.02734982    -0.17300
C901        C  0.01103026  0.42030571  0.02122462    -0.27700
C902        C  0.99580256  0.42076709  0.00788819     0.18400
C903        C  0.99366580  0.51760952  0.00004661     0.12300
C904        C  0.02807622  0.51721910  0.02717337    -0.12000
H905        H  0.03323511  0.45146461  0.03742814     0.12600
C906        C  0.98320221  0.38830473  0.00082467    -0.22900
H907        H  0.97914417  0.45362385  0.99088620     0.08300
C908        C  0.01203504  0.53092843  0.98888676     0.04600
C909        C  0.00270087  0.56179226  0.98201845    -0.20100
C910        C  0.97556210  0.57969677  0.98618144    -0.12400
C911        C  0.95761384  0.56650490  0.99767963     0.13300
C912        C  0.96701546  0.53560410  0.00443957    -0.22800
C913        C  0.04128988  0.51244381  0.98422439    -0.05900
H914        H  0.01639764  0.57169955  0.97321703     0.14800
C915        C  0.92771656  0.58356861  0.00250034    -0.16100
H916        H  0.95319821  0.52493756  0.01306323     0.09200
H917        H  0.99554835  0.38392297  0.99060480     0.07000
H918        H  0.95799799  0.39185627  0.99862414     0.08200
H919        H  0.98548438  0.36448940  0.00745308     0.07300
H920        H  0.00830291  0.53525675  0.02919413     0.02100
H921        H  0.04499262  0.53014615  0.01994912     0.02600
H922        H  0.03993765  0.51211132  0.03745894     0.06100
H923        H  0.05308467  0.52654838  0.97540888     0.05100
H924        H  0.03556222  0.48564670  0.98048997    -0.00700
H925        H  0.05777794  0.51064968  0.99328678     0.00800
H926        H  0.91618915  0.56845477  0.01111314     0.04500
H927        H  0.91112897  0.58529284  0.99347357     0.06400
H928        H  0.93258349  0.61011272  0.00673966     0.07300
C929        C  0.86241705  0.67776886  0.89488665    -0.22300
C930        C  0.87977248  0.68911467  0.88313500     0.09600
C931        C  0.91122507  0.69870421  0.88500484     0.10000
C932        C  0.92482423  0.69607401  0.89856872    -0.17300
C933        C  0.90782914  0.68352804  0.91029689    -0.27700
C934        C  0.87600564  0.67474061  0.90843839     0.18400
C935        C  0.86490067  0.68899572  0.86885219     0.12300
C936        C  0.93053250  0.71107916  0.87261753    -0.12000
H937        H  0.94911175  0.70297701  0.89994287     0.12600
C938        C  0.85598120  0.66299375  0.92071875    -0.22900
H939        H  0.83820709  0.67068644  0.89336653     0.08300
C940        C  0.86360817  0.65820651  0.86064362     0.04600
C941        C  0.84892616  0.65882689  0.84731149    -0.20100
C942        C  0.83498481  0.68948713  0.84188399    -0.12400
C943        C  0.83644448  0.72054255  0.85024146     0.13300
C944        C  0.85151418  0.71979875  0.86355876    -0.22800
C945        C  0.87774132  0.62457792  0.86599581    -0.05900
H946        H  0.84800790  0.63483152  0.84119504     0.14800
C947        C  0.82252585  0.75471142  0.84534396    -0.16100
H948        H  0.85266656  0.74331995  0.86997231     0.09200
H949        H  0.83129480  0.65955402  0.91749338     0.07000
H950        H  0.85670571  0.68286662  0.92932739     0.08200
H951        H  0.86430936  0.63745134  0.92484929     0.07300
H952        H  0.92001461  0.73507720  0.86800328     0.02100
H953        H  0.93146472  0.69038606  0.86434237     0.02600
H954        H  0.95477035  0.71729845  0.87586069     0.06100
H955        H  0.87493929  0.60290360  0.85823533     0.05100
H956        H  0.86626699  0.61664497  0.87607228    -0.00700
H957        H  0.90301414  0.62834041  0.86793749     0.00800
H958        H  0.82719107  0.77626731  0.85297400     0.04500
H959        H  0.79687668  0.75214847  0.84438849     0.06400
H960        H  0.83268013  0.76238895  0.83495923     0.07300
C961        C  0.87661791  0.91782343  0.95772017    -0.22300
C962        C  0.86324900  0.89424457  0.96742832     0.09600
C963        C  0.84050868  0.90654791  0.97710929     0.10000
C964        C  0.83049930  0.94144590  0.97620764    -0.17300
C965        C  0.84177801  0.96396065  0.96560354    -0.27700
C966        C  0.86575301  0.95230954  0.95646691     0.18400
C967        C  0.87247308  0.85670028  0.96674747     0.12300
C968        C  0.82525862  0.88266854  0.98781857    -0.12000
H969        H  0.81209485  0.95050707  0.98319636     0.12600
C970        C  0.88019556  0.97538789  0.94525778    -0.22900
H971        H  0.89502230  0.90887144  0.95070072     0.08300
C972        C  0.86739855  0.83635516  0.95438293     0.04600
C973        C  0.87863852  0.80187610  0.95385516    -0.20100
C974        C  0.89344729  0.78649988  0.96560096    -0.12400
C975        C  0.89593604  0.80589313  0.97842276     0.13300
C976        C  0.88661168  0.84111819  0.97859824    -0.22800
C977        C  0.84980253  0.85061634  0.94176695    -0.05900
H978        H  0.87617372  0.78691348  0.94413180     0.14800
C979        C  0.90875386  0.79014910  0.99193175    -0.16100
H980        H  0.89072038  0.85673194  0.98801825     0.09200
H981        H  0.87541630  0.96432122  0.93456171     0.07000
H982        H  0.90577840  0.97650804  0.94689270     0.08200
H983        H  0.87138897  0.00264871  0.94557364     0.07300
H984        H  0.84253525  0.87333372  0.99569366     0.02100
H985        H  0.81460209  0.85993363  0.98231537     0.02600
H986        H  0.80668061  0.89634565  0.99386203     0.06100
H987        H  0.84613993  0.83027831  0.93349892     0.05100
H988        H  0.86283844  0.87236429  0.93673587    -0.00700
H989        H  0.82658386  0.86013349  0.94523789     0.00800
H990        H  0.93276345  0.78038672  0.99029136     0.04500
H991        H  0.89364492  0.76815400  0.99538412     0.06400
H992        H  0.90942826  0.80948126  0.00074400     0.07300
C993        C  0.88740866  0.20204807  0.98045375    -0.22300
C994        C  0.90745666  0.18731401  0.99054997     0.09600
C995        C  0.90785367  0.15066535  0.99233301     0.10000
C996        C  0.88769302  0.12961487  0.98422314    -0.17300
C997        C  0.86663753  0.14412454  0.97433864    -0.27700
C998        C  0.86692564  0.18119208  0.97236924     0.18400
C999        C  0.92789210  0.21061434  0.99920002     0.12300
C1000       C  0.92957331  0.13373457  0.00286693    -0.12000
H1001       H  0.88794675  0.10156802  0.98591955     0.12600
C1002       C  0.84525998  0.19958826  0.96219100    -0.22900
H1003       H  0.88738791  0.23023261  0.97911608     0.08300
C1004       C  0.95566243  0.22473253  0.99359883     0.04600
C1005       C  0.97536979  0.24442235  0.00244904    -0.20100
C1006       C  0.96819542  0.25021229  0.01685641    -0.12400
C1007       C  0.93966484  0.23731331  0.02230532     0.13300
C1008       C  0.91988098  0.21770300  0.01339279    -0.22800
C1009       C  0.96490420  0.21823746  0.97837628    -0.05900
H1010       H  0.99706716  0.25443964  0.99818697     0.14800
C1011       C  0.92957008  0.24486498  0.03734733    -0.16100
H1012       H  0.89823106  0.20734390  0.01756071     0.09200
H1013       H  0.84931349  0.19000819  0.95120306     0.07000
H1014       H  0.84903411  0.22835666  0.96211472     0.08200
H1015       H  0.82069134  0.19501159  0.96536586     0.07300
H1016       H  0.92422714  0.14312661  0.01376308     0.02100
H1017       H  0.95402874  0.14048703  0.00019079     0.02600
H1018       H  0.92735469  0.10477096  0.00282332     0.06100
H1019       H  0.98759990  0.23060392  0.97576185     0.05100
H1020       H  0.94704680  0.22931334  0.97112965    -0.00700
H1021       H  0.96698177  0.18965553  0.97645530     0.00800
H1022       H  0.92932559  0.27358361  0.03919473     0.04500
H1023       H  0.94568014  0.23221271  0.04499572     0.06400
H1024       H  0.90580842  0.23470741  0.03951920     0.07300
C1025       C  0.90568770  0.90895376  0.77657795    -0.22300
C1026       C  0.88361062  0.89721658  0.78640552     0.09600
C1027       C  0.87220363  0.92021045  0.79694068     0.10000
C1028       C  0.88408459  0.95434203  0.79770533    -0.17300
C1029       C  0.90665540  0.96597921  0.78802353    -0.27700
C1030       C  0.91737954  0.94311792  0.77721248     0.18400
C1031       C  0.87353599  0.86032696  0.78575069     0.12300
C1032       C  0.84753420  0.90872987  0.80733592    -0.12000
H1033       H  0.87606716  0.97188721  0.80599452     0.12600
C1034       C  0.94246596  0.95373441  0.76684243    -0.22900
H1035       H  0.91433856  0.89094112  0.76859149     0.08300
C1036       C  0.85254651  0.84857917  0.77527424     0.04600
C1037       C  0.84216773  0.81383623  0.77568811    -0.20100
C1038       C  0.85191736  0.79093629  0.78647329    -0.12400
C1039       C  0.87416392  0.80226379  0.79653404     0.13300
C1040       C  0.88493198  0.83687383  0.79596380    -0.22800
C1041       C  0.84002013  0.87307223  0.76409098    -0.05900
H1042       H  0.82482364  0.80519673  0.76811093     0.14800
C1043       C  0.88667628  0.77796623  0.80779667    -0.16100
H1044       H  0.90163636  0.84604476  0.80375417     0.09200
H1045       H  0.94875553  0.93203396  0.75952631     0.07000
H1046       H  0.96378777  0.96129402  0.77273579     0.08200
H1047       H  0.93437900  0.97600131  0.76022707     0.07300
H1048       H  0.85628808  0.88667032  0.81388938     0.02100
H1049       H  0.82644810  0.90019149  0.80145677     0.02600
H1050       H  0.84073337  0.93026932  0.81463565     0.06100
H1051       H  0.82310629  0.85979201  0.75697423     0.05100
H1052       H  0.85939071  0.88310645  0.75742932    -0.00700
H1053       H  0.82799558  0.89543562  0.76926321     0.00800
H1054       H  0.89700470  0.75447193  0.80269363     0.04500
H1055       H  0.86781360  0.76975140  0.81510072     0.06400
H1056       H  0.90500503  0.79075128  0.81430544     0.07300
C1057       C  0.86509383  0.07889114  0.85793757    -0.22300
C1058       C  0.88065786  0.06386565  0.86950370     0.09600
C1059       C  0.91108734  0.05082751  0.86772463     0.10000
C1060       C  0.92584514  0.05443618  0.85448380    -0.17300
C1061       C  0.91084110  0.07080260  0.84295236    -0.27700
C1062       C  0.87967322  0.08244853  0.84465032     0.18400
C1063       C  0.86505882  0.06377240  0.88354709     0.12300
C1064       C  0.92805899  0.03358220  0.87986197    -0.12000
H1065       H  0.94950509  0.04505824  0.85323525     0.12600
C1066       C  0.86123212  0.09780511  0.83250948    -0.22900
H1067       H  0.84151862  0.08837634  0.85941427     0.08300
C1068       C  0.86579614  0.09353471  0.89235431     0.04600
C1069       C  0.84941686  0.09323762  0.90524449    -0.20100
C1070       C  0.83209391  0.06381529  0.90965433    -0.12400
C1071       C  0.83222001  0.03345139  0.90085419     0.13300
C1072       C  0.84866603  0.03401352  0.88791326    -0.22800
C1073       C  0.88387768  0.12569860  0.88810375    -0.05900
H1074       H  0.84987674  0.11654462  0.91179614     0.14800
C1075       C  0.81547536  0.00017952  0.90486802    -0.16100
H1076       H  0.84852797  0.01122395  0.88105116     0.09200
H1077       H  0.87142666  0.12319184  0.82917710     0.07000
H1078       H  0.83664925  0.10284147  0.83556276     0.08200
H1079       H  0.86111186  0.07931415  0.82339973     0.07300
H1080       H  0.91487815  0.01021471  0.88347754     0.02100
H1081       H  0.93035004  0.05223765  0.88884761     0.02600
H1082       H  0.95177006  0.02495546  0.87670314     0.06100
H1083       H  0.88231434  0.14661789  0.89626976     0.05100
H1084       H  0.87460010  0.13631276  0.87796688    -0.00700
H1085       H  0.90881233  0.11886274  0.88667963     0.00800
H1086       H  0.78999168  0.00487444  0.90529950     0.04500
H1087       H  0.82400328  0.99063972  0.91532111     0.06400
H1088       H  0.81949186  0.97899900  0.89698831     0.07300
C1089       C  0.82061221  0.14797759  0.76396996    -0.22300
C1090       C  0.82660769  0.18375503  0.76205446     0.09600
C1091       C  0.85209957  0.19923646  0.76907525     0.10000
C1092       C  0.87171280  0.17835167  0.77744852    -0.17300
C1093       C  0.86707924  0.14198651  0.77872316    -0.27700
C1094       C  0.84060255  0.12677586  0.77214937     0.18400
C1095       C  0.80605439  0.20479918  0.75265410     0.12300
C1096       C  0.85931549  0.23760260  0.76728518    -0.12000
H1097       H  0.89195586  0.19030553  0.78231972     0.12600
C1098       C  0.83297930  0.08847533  0.77379435    -0.22900
H1099       H  0.80055820  0.13648126  0.75876235     0.08300
C1100       C  0.80947704  0.20467313  0.73773450     0.04600
C1101       C  0.79054794  0.22663340  0.72938245    -0.20100
C1102       C  0.76830531  0.24900853  0.73559478    -0.12400
C1103       C  0.76471081  0.24845926  0.75066247     0.13300
C1104       C  0.78366310  0.22641357  0.75890196    -0.22800
C1105       C  0.83340403  0.18167561  0.73067165    -0.05900
H1106       H  0.79334147  0.22646519  0.71793132     0.14800
C1107       C  0.74052578  0.27010412  0.75829893    -0.16100
H1108       H  0.78119887  0.22613805  0.77037663     0.09200
H1109       H  0.85069385  0.07216027  0.76834931     0.07000
H1110       H  0.81004942  0.08197276  0.76901999     0.08200
H1111       H  0.83203962  0.08155590  0.78525535     0.07300
H1112       H  0.83961153  0.25359132  0.77130119     0.02100
H1113       H  0.86317024  0.24356003  0.75586227     0.02600
H1114       H  0.88056745  0.24534764  0.77322715     0.06100
H1115       H  0.83333740  0.18495156  0.71893752     0.05100
H1116       H  0.82842781  0.15378271  0.73308352    -0.00700
H1117       H  0.85698753  0.18839621  0.73466195     0.00800
H1118       H  0.74012784  0.26460844  0.76989699     0.04500
H1119       H  0.71700959  0.26406394  0.75405407     0.06400
H1120       H  0.74570896  0.29838898  0.75701694     0.07300
C1121       C  0.28042088  0.53892749  0.49069458    -0.22300
C1122       C  0.30454975  0.55739825  0.49728694     0.09600
C1123       C  0.30856777  0.55451783  0.51212242     0.10000
C1124       C  0.28836021  0.53310188  0.52005278    -0.17300
C1125       C  0.26417278  0.51411257  0.51352568    -0.27700
C1126       C  0.26016658  0.51733943  0.49854444     0.18400
C1127       C  0.32600592  0.57876754  0.48839518     0.12300
C1128       C  0.33440910  0.57386241  0.51955687    -0.12000
H1129       H  0.29165211  0.53105754  0.53144428     0.12600
C1130       C  0.23430734  0.49901555  0.49065217    -0.22900
H1131       H  0.27754455  0.54137714  0.47928617     0.08300
C1132       C  0.35159775  0.56341738  0.48137682     0.04600
C1133       C  0.37246569  0.58478241  0.47382291    -0.20100
C1134       C  0.36848940  0.62134636  0.47308350    -0.12400
C1135       C  0.34154948  0.63634526  0.47938003     0.13300
C1136       C  0.32098717  0.61490740  0.48713529    -0.22800
C1137       C  0.35747566  0.52459369  0.48229584    -0.05900
H1138       H  0.39295433  0.57294208  0.46910661     0.14800
C1139       C  0.33326653  0.67453186  0.47793746    -0.16100
H1140       H  0.30085126  0.62648960  0.49226368     0.09200
H1141       H  0.23400911  0.50610483  0.47919712     0.07000
H1142       H  0.21140756  0.50649531  0.49520345     0.08200
H1143       H  0.23748223  0.47023081  0.49130071     0.07300
H1144       H  0.33151773  0.60247531  0.51796205     0.02100
H1145       H  0.35724069  0.56558042  0.51515403     0.02600
H1146       H  0.33451085  0.56860197  0.53117161     0.06100
H1147       H  0.37876963  0.51683931  0.47637660     0.05100
H1148       H  0.33744835  0.51013251  0.47770472    -0.00700
H1149       H  0.36049075  0.51677589  0.49358326     0.00800
H1150       H  0.30900037  0.67693819  0.47397968     0.04500
H1151       H  0.34816451  0.68863746  0.47022398     0.06400
H1152       H  0.33490285  0.68749587  0.48847367     0.07300
C1153       C  0.39733807  0.35458711  0.55725589    -0.22300
C1154       C  0.39072164  0.37801650  0.56826146     0.09600
C1155       C  0.41443613  0.38813570  0.57775461     0.10000
C1156       C  0.44474472  0.37510225  0.57577478    -0.17300
C1157       C  0.45163923  0.35196740  0.56457542    -0.27700
C1158       C  0.42745298  0.34151963  0.55519477     0.18400
C1159       C  0.35908719  0.39317791  0.56877817     0.12300
C1160       C  0.40775081  0.41289045  0.58982397    -0.12000
H1161       H  0.46317610  0.38325194  0.58290410     0.12600
C1162       C  0.43327098  0.31820959  0.54249576    -0.22900
H1163       H  0.37887938  0.34733087  0.54996589     0.08300
C1164       C  0.35152110  0.42269555  0.56050562     0.04600
C1165       C  0.32034997  0.43303506  0.55936571    -0.20100
C1166       C  0.29624704  0.41406036  0.56600576    -0.12400
C1167       C  0.30419117  0.38520174  0.57482477     0.13300
C1168       C  0.33560509  0.37526518  0.57610904    -0.22800
C1169       C  0.37623914  0.44245845  0.55240953    -0.05900
H1170       H  0.31474020  0.45514907  0.55261380     0.14800
C1171       C  0.28002657  0.36456468  0.58288099    -0.16100
H1172       H  0.34181490  0.35254216  0.58240327     0.09200
H1173       H  0.41203873  0.31489964  0.53589144     0.07000
H1174       H  0.44051090  0.29174072  0.54605857     0.08200
H1175       H  0.45160626  0.32982311  0.53562689     0.07300
H1176       H  0.38974351  0.40138581  0.59689148     0.02100
H1177       H  0.39913028  0.43823151  0.58560247     0.02600
H1178       H  0.42889094  0.41810535  0.59628103     0.06100
H1179       H  0.36631544  0.46488863  0.54641037     0.05100
H1180       H  0.38782152  0.42477427  0.54467679    -0.00700
H1181       H  0.39391641  0.45284004  0.55990138     0.00800
H1182       H  0.26475147  0.35022631  0.57536883     0.04500
H1183       H  0.26589501  0.38246478  0.58958212     0.06400
H1184       H  0.29084343  0.34478509  0.58999422     0.07300
C1185       C  0.99522659  0.30197047  0.75191064    -0.22300
C1186       C  0.00866625  0.27032400  0.74753592     0.09600
C1187       C  0.02788058  0.26921208  0.73542834     0.10000
C1188       C  0.03304179  0.29998476  0.72779324    -0.17300
C1189       C  0.01968763  0.33175607  0.73210770    -0.27700
C1190       C  0.00053110  0.33294787  0.74431449     0.18400
C1191       C  0.00045231  0.23802078  0.75509832     0.12300
C1192       C  0.04303576  0.23562569  0.73064578    -0.12000
H1193       H  0.04815460  0.29942052  0.71855241     0.12600
C1194       C  0.98459059  0.36588408  0.74931821    -0.22900
H1195       H  0.98012193  0.30233345  0.76115499     0.08300
C1196       C  0.01708068  0.22664487  0.76711951     0.04600
C1197       C  0.00818729  0.19543034  0.77378657    -0.20100
C1198       C  0.98307888  0.17543842  0.76864080    -0.12400
C1199       C  0.96678406  0.18692785  0.75635019     0.13300
C1200       C  0.97577165  0.21817329  0.74979099    -0.22800
C1201       C  0.04398011  0.24755162  0.77290399    -0.05900
H1202       H  0.02070469  0.18680824  0.78316305     0.14800
C1203       C  0.93929242  0.16744104  0.75025954    -0.16100
H1204       H  0.96340996  0.22740318  0.74046005     0.09200
H1205       H  0.99298627  0.37270042  0.76013123     0.07000
H1206       H  0.95905680  0.36144297  0.74975877     0.08200
H1207       H  0.98864578  0.38857244  0.74221791     0.07300
H1208       H  0.02492271  0.21590573  0.72807232     0.02100
H1209       H  0.05819112  0.22530483  0.73923852     0.02600
H1210       H  0.05764187  0.23958039  0.72103011     0.06100
H1211       H  0.05451156  0.23484598  0.78237807     0.05100
H1212       H  0.03582861  0.27402205  0.77605017    -0.00700
H1213       H  0.06231752  0.25018353  0.76465094     0.00800
H1214       H  0.92877830  0.18146839  0.74109215     0.04500
H1215       H  0.92094056  0.16448995  0.75845869     0.06400
H1216       H  0.94677092  0.14130416  0.74640757     0.07300
C1217       C  0.11939191  0.43081200  0.60708934    -0.22300
C1218       C  0.13291820  0.45140797  0.61775148     0.09600
C1219       C  0.16088262  0.46941924  0.61480765     0.10000
C1220       C  0.17498403  0.46579616  0.60137499    -0.17300
C1221       C  0.16199928  0.44438225  0.59071924    -0.27700
C1222       C  0.13331335  0.42714635  0.59362429     0.18400
C1223       C  0.11823053  0.45182918  0.63212804     0.12300
C1224       C  0.17572392  0.49275486  0.62579060    -0.12000
H1225       H  0.19665979  0.47938077  0.59929824     0.12600
C1226       C  0.11667099  0.40530336  0.58263603    -0.22900
H1227       H  0.09793822  0.41701178  0.60942983     0.08300
C1228       C  0.08938163  0.46837941  0.63474499     0.04600
C1229       C  0.07518264  0.46487388  0.64817620    -0.20100
C1230       C  0.08912326  0.44521133  0.65913809    -0.12400
C1231       C  0.11903881  0.43046344  0.65668449     0.13300
C1232       C  0.13287627  0.43363064  0.64319524    -0.22800
C1233       C  0.07369293  0.48993056  0.62340253    -0.05900
H1234       H  0.05264689  0.47684949  0.64998088     0.14800
C1235       C  0.13707578  0.41200233  0.66822986    -0.16100
H1236       H  0.15515048  0.42124605  0.64116454     0.09200
H1237       H  0.09365863  0.39607312  0.58651490     0.07000
H1238       H  0.13061083  0.38170635  0.58003096     0.08200
H1239       H  0.11258840  0.42106642  0.57288841     0.07300
H1240       H  0.18258437  0.47718457  0.63523983     0.02100
H1241       H  0.15897664  0.51338110  0.62906646     0.02600
H1242       H  0.19695040  0.50579827  0.62161228     0.06100
H1243       H  0.05177826  0.50198202  0.62732686     0.05100
H1244       H  0.06785447  0.47326668  0.61412469    -0.00700
H1245       H  0.08950503  0.51129337  0.61993775     0.00800
H1246       H  0.12539430  0.38716770  0.67120127     0.04500
H1247       H  0.13911139  0.42927664  0.67768127     0.06400
H1248       H  0.16102919  0.40522313  0.66472291     0.07300
C1249       C  0.92819133  0.53252114  0.73885610    -0.22300
C1250       C  0.93795498  0.54261053  0.75248463     0.09600
C1251       C  0.96651915  0.53002214  0.75779947     0.10000
C1252       C  0.98535855  0.50884617  0.74913200    -0.17300
C1253       C  0.97630365  0.49973427  0.73523615    -0.27700
C1254       C  0.94672032  0.51076137  0.73023761     0.18400
C1255       C  0.91794075  0.56639105  0.76104258     0.12300
C1256       C  0.97739147  0.53960998  0.77251593    -0.12000
H1257       H  0.00783374  0.50035320  0.75307661     0.12600
C1258       C  0.93336609  0.49920199  0.71617648    -0.22900
H1259       H  0.90581670  0.54149838  0.73496008     0.08300
C1260       C  0.91915569  0.60300550  0.75933539     0.04600
C1261       C  0.89951414  0.62445279  0.76753770    -0.20100
C1262       C  0.87808909  0.61028152  0.77735370    -0.12400
C1263       C  0.87744765  0.57316565  0.77915258     0.13300
C1264       C  0.89751065  0.55197497  0.77102857    -0.22800
C1265       C  0.94096195  0.61938429  0.74869356    -0.05900
H1266       H  0.90034505  0.65251443  0.76590987     0.14800
C1267       C  0.85530377  0.55503654  0.78920640    -0.16100
H1268       H  0.89690014  0.52376212  0.77225799     0.09200
H1269       H  0.93061671  0.52220952  0.70907280     0.07000
H1270       H  0.91014067  0.48717686  0.71794999     0.08200
H1271       H  0.94775374  0.47925272  0.71072775     0.07300
H1272       H  0.96038004  0.53002702  0.78050932     0.02100
H1273       H  0.97950068  0.56848852  0.77342993     0.02600
H1274       H  0.00041217  0.52786075  0.77499916     0.06100
H1275       H  0.93913110  0.64838591  0.74866696     0.05100
H1276       H  0.93531895  0.60984713  0.73784729    -0.00700
H1277       H  0.96535945  0.61223679  0.75129744     0.00800
H1278       H  0.83086217  0.56014416  0.78600327     0.04500
H1279       H  0.85934332  0.56430421  0.80023585     0.06400
H1280       H  0.85855466  0.52618606  0.78918513     0.07300
C1281       C  0.90291532  0.41337729  0.67142757    -0.22300
C1282       C  0.89262355  0.38186111  0.67750209     0.09600
C1283       C  0.91437791  0.35974456  0.68429829     0.10000
C1284       C  0.94552239  0.37047478  0.68548182    -0.17300
C1285       C  0.95547213  0.40307759  0.68026509    -0.27700
C1286       C  0.93407757  0.42426489  0.67267937     0.18400
C1287       C  0.85869252  0.37401425  0.67798495     0.12300
C1288       C  0.90445838  0.32568460  0.69101612    -0.12000
H1289       H  0.96180736  0.35418321  0.69130227     0.12600
C1290       C  0.94326253  0.45820164  0.66566607    -0.22900
H1291       H  0.88631003  0.43004933  0.66598652     0.08300
C1292       C  0.83876565  0.39248516  0.68729721     0.04600
C1293       C  0.80773314  0.38169035  0.68880932    -0.20100
C1294       C  0.79618773  0.35247078  0.68148525    -0.12400
C1295       C  0.81569940  0.33476960  0.67173402     0.13300
C1296       C  0.84672007  0.34590113  0.67005700    -0.22800
C1297       C  0.85054742  0.42252679  0.69619255    -0.05900
H1298       H  0.79275614  0.39510578  0.69631808     0.14800
C1299       C  0.80451673  0.30441705  0.66288438    -0.16100
H1300       H  0.86190663  0.33200051  0.66278224     0.09200
H1301       H  0.93063819  0.48024265  0.67076541     0.07000
H1302       H  0.93690628  0.45725848  0.65422809     0.08200
H1303       H  0.96860354  0.46340188  0.66620261     0.07300
H1304       H  0.89521253  0.30775450  0.68275957     0.02100
H1305       H  0.88614855  0.33065315  0.69910686     0.02600
H1306       H  0.92419915  0.31226445  0.69635453     0.06100
H1307       H  0.83213690  0.43310979  0.70329240     0.05100
H1308       H  0.85852675  0.44415016  0.68921027    -0.00700
H1309       H  0.87021918  0.41360726  0.70294291     0.00800
H1310       H  0.80769594  0.31063657  0.65144044     0.04500
H1311       H  0.77953758  0.29842193  0.66456539     0.06400
H1312       H  0.81832953  0.28070724  0.66550224     0.07300
C1313       C  0.36686838  0.91317200  0.29871487    -0.22300
C1314       C  0.37591725  0.89164936  0.28737606     0.09600
C1315       C  0.39364192  0.90545266  0.27610330     0.10000
C1316       C  0.40276653  0.94050003  0.27661645    -0.17300
C1317       C  0.39515302  0.96170113  0.28827442    -0.27700
C1318       C  0.37629981  0.94821684  0.29932098     0.18400
C1319       C  0.36567216  0.85495972  0.28723190     0.12300
C1320       C  0.40412401  0.88281629  0.26387961    -0.12000
H1321       H  0.41765679  0.95073506  0.26831689     0.12600
C1322       C  0.36558895  0.97004308  0.31175093    -0.22900
H1323       H  0.35255830  0.90247312  0.30716544     0.08300
C1324       C  0.37951052  0.82944837  0.29604599     0.04600
C1325       C  0.36775148  0.79524111  0.29586617    -0.20100
C1326       C  0.34282110  0.78630590  0.28696159    -0.12400
C1327       C  0.32957773  0.81177645  0.27788700     0.13300
C1328       C  0.34127510  0.84586664  0.27813206    -0.22800
C1329       C  0.40640227  0.83839612  0.30565664    -0.05900
H1330       H  0.37740094  0.77565492  0.30294862     0.14800
C1331       C  0.30178267  0.80385763  0.26864738    -0.16100
H1332       H  0.33082314  0.86585964  0.27148521     0.09200
H1333       H  0.37549829  0.95935645  0.32175341     0.07000
H1334       H  0.33978674  0.96921958  0.31243206     0.08200
H1335       H  0.37237494  0.99792140  0.31078155     0.07300
H1336       H  0.38361552  0.87264433  0.25802711     0.02100
H1337       H  0.41803675  0.86048158  0.26797847     0.02600
H1338       H  0.41878812  0.89760689  0.25622713     0.06100
H1339       H  0.41477775  0.81512706  0.31162251     0.05100
H1340       H  0.39916059  0.85851871  0.31349650    -0.00700
H1341       H  0.42605992  0.84868711  0.29922403     0.00800
H1342       H  0.28189878  0.79583560  0.27541953     0.04500
H1343       H  0.30749139  0.78261930  0.26103545     0.06400
H1344       H  0.29432403  0.82706515  0.26239610     0.07300
C1345       C  0.34059490  0.19641556  0.27463537    -0.22300
C1346       C  0.31895811  0.18069591  0.26551485     0.09600
C1347       C  0.31791211  0.14383505  0.26466434     0.10000
C1348       C  0.33976300  0.12367264  0.27225851    -0.17300
C1349       C  0.36302295  0.13930192  0.28073337    -0.27700
C1350       C  0.36254167  0.17644099  0.28227759     0.18400
C1351       C  0.29895793  0.20340172  0.25633597     0.12300
C1352       C  0.29387242  0.12574507  0.25561560    -0.12000
H1353       H  0.33932449  0.09546774  0.27109726     0.12600
C1354       C  0.38570952  0.19583002  0.29138750    -0.22900
H1355       H  0.34106231  0.22473154  0.27534095     0.08300
C1356       C  0.27347389  0.22238034  0.26183926     0.04600
C1357       C  0.25552665  0.24347047  0.25268147    -0.20100
C1358       C  0.26209604  0.24592812  0.23802585    -0.12400
C1359       C  0.28800847  0.22712294  0.23258287     0.13300
C1360       C  0.30611298  0.20637867  0.24182253    -0.22800
C1361       C  0.26476484  0.21974171  0.27731631    -0.05900
H1362       H  0.23568978  0.25746849  0.25697134     0.14800
C1363       C  0.29729913  0.22926633  0.21715186    -0.16100
H1364       H  0.32599155  0.19215173  0.23769247     0.09200
H1365       H  0.38125655  0.22447558  0.29145818     0.07000
H1366       H  0.40964263  0.19184107  0.28722593     0.08200
H1367       H  0.38409119  0.18653682  0.30255048     0.07300
H1368       H  0.29691883  0.13322034  0.24430035     0.02100
H1369       H  0.27019228  0.13344286  0.25918353     0.02600
H1370       H  0.29576445  0.09680483  0.25636395     0.06100
H1371       H  0.24375942  0.23554061  0.27982789     0.05100
H1372       H  0.28417412  0.22942050  0.28402959    -0.00700
H1373       H  0.25978519  0.19203418  0.28007325     0.00800
H1374       H  0.30082907  0.25702904  0.21405613     0.04500
H1375       H  0.27904154  0.21732519  0.21037374     0.06400
H1376       H  0.31933917  0.21495938  0.21504149     0.07300
C1377       C  0.39893026  0.85339482  0.47849269    -0.22300
C1378       C  0.37762961  0.86416995  0.46812339     0.09600
C1379       C  0.36785441  0.84045505  0.45753140     0.10000
C1380       C  0.38113948  0.80693442  0.45703787    -0.17300
C1381       C  0.40355008  0.79655490  0.46704207    -0.27700
C1382       C  0.41202144  0.81977216  0.47812420     0.18400
C1383       C  0.36750232  0.90112800  0.46797436     0.12300
C1384       C  0.34370911  0.85070802  0.44668502    -0.12000
H1385       H  0.37465371  0.78905699  0.44859576     0.12600
C1386       C  0.43626574  0.81015912  0.48904662    -0.22900
H1387       H  0.40615391  0.87185824  0.48659364     0.08300
C1388       C  0.34422954  0.91355537  0.47724302     0.04600
C1389       C  0.33457207  0.94850896  0.47617775    -0.20100
C1390       C  0.34746871  0.97108064  0.46597227    -0.12400
C1391       C  0.37170361  0.95893590  0.45707494     0.13300
C1392       C  0.38146098  0.92404264  0.45822483    -0.22800
C1393       C  0.32876504  0.88960714  0.48782727    -0.05900
H1394       H  0.31557854  0.95765529  0.48277378     0.14800
C1395       C  0.38787144  0.98200132  0.44637368    -0.16100
H1396       H  0.39976194  0.91442822  0.45129948     0.09200
H1397       H  0.44078080  0.83198579  0.49656722     0.07000
H1398       H  0.45856009  0.80366635  0.48368468     0.08200
H1399       H  0.42823351  0.78733999  0.49536352     0.07300
H1400       H  0.35220664  0.87312118  0.44025630     0.02100
H1401       H  0.32184232  0.85833045  0.45217663     0.02600
H1402       H  0.33832400  0.82880599  0.43932160     0.06100
H1403       H  0.31055591  0.90342982  0.49406400     0.05100
H1404       H  0.34635347  0.87926077  0.49538074    -0.00700
H1405       H  0.31759544  0.86741582  0.48216679     0.00800
H1406       H  0.41316414  0.98284475  0.44878975     0.04500
H1407       H  0.37916707  0.00932106  0.44645029     0.06400
H1408       H  0.38470895  0.97099703  0.43555099     0.07300
C1409       C  0.21902959  0.29620436  0.49734939    -0.22300
C1410       C  0.24634607  0.27895759  0.50136779     0.09600
C1411       C  0.26640257  0.29423785  0.51146079     0.10000
C1412       C  0.25742363  0.32546165  0.51813345    -0.17300
C1413       C  0.22943221  0.34236379  0.51452058    -0.27700
C1414       C  0.21040258  0.32797722  0.50365443     0.18400
C1415       C  0.25404853  0.24560966  0.49433027     0.12300
C1416       C  0.29737182  0.27785475  0.51502055    -0.12000
H1417       H  0.27227033  0.33667504  0.52626145     0.12600
C1418       C  0.18051824  0.34507040  0.49889841    -0.22900
H1419       H  0.20431263  0.28452769  0.48927640     0.08300
C1420       C  0.24736865  0.21297236  0.50065215     0.04600
C1421       C  0.25569147  0.18213010  0.49348444    -0.20100
C1422       C  0.26975871  0.18338659  0.48002280    -0.12400
C1423       C  0.27612464  0.21642189  0.47367838     0.13300
C1424       C  0.26783613  0.24698586  0.48090947    -0.22800
C1425       C  0.23083332  0.21077153  0.51475343    -0.05900
H1426       H  0.25076511  0.15692049  0.49829403     0.14800
C1427       C  0.29268214  0.22114534  0.45963571    -0.16100
H1428       H  0.27273064  0.27228196  0.47614780     0.09200
H1429       H  0.16815810  0.32920249  0.49077346     0.07000
H1430       H  0.18558597  0.37100316  0.49410475     0.08200
H1431       H  0.16464533  0.34832353  0.50807409     0.07300
H1432       H  0.31187004  0.27613565  0.50526573     0.02100
H1433       H  0.29396768  0.25116051  0.51938294     0.02600
H1434       H  0.31033987  0.29348174  0.52302151     0.06100
H1435       H  0.22704384  0.18319560  0.51807932     0.05100
H1436       H  0.20776596  0.22375077  0.51394799    -0.00700
H1437       H  0.24471087  0.22395095  0.52312336     0.00800
H1438       H  0.27655934  0.23336037  0.45185315     0.04500
H1439       H  0.30187426  0.19669026  0.45502000     0.06400
H1440       H  0.31297886  0.23878619  0.46111752     0.07300
C1441       C  0.36803630  0.06213483  0.35654402    -0.22300
C1442       C  0.38603557  0.05951098  0.36891664     0.09600
C1443       C  0.41865192  0.05594337  0.36779722     0.10000
C1444       C  0.43267045  0.05627585  0.35427691    -0.17300
C1445       C  0.41475849  0.06046212  0.34189705    -0.27700
C1446       C  0.38191415  0.06242702  0.34303526     0.18400
C1447       C  0.37025607  0.06267953  0.38290456     0.12300
C1448       C  0.43862242  0.05270471  0.38088525    -0.12000
H1449       H  0.45778501  0.05453574  0.35339016     0.12600
C1450       C  0.36069201  0.06417975  0.33028049    -0.22900
H1451       H  0.34295450  0.06442501  0.35745302     0.08300
C1452       C  0.36364941  0.09578845  0.38877989     0.04600
C1453       C  0.34790636  0.09793382  0.40182588    -0.20100
C1454       C  0.33808783  0.06772773  0.40914771    -0.12400
C1455       C  0.34491088  0.03441118  0.40320288     0.13300
C1456       C  0.36103705  0.03239021  0.39018207    -0.22800
C1457       C  0.37317957  0.12890634  0.38122844    -0.05900
H1458       H  0.34280126  0.12352331  0.40621583     0.14800
C1459       C  0.33595285  0.00086874  0.41057367    -0.16100
H1460       H  0.36627720  0.00706927  0.38556693     0.09200
H1461       H  0.34748842  0.08916460  0.33045478     0.07000
H1462       H  0.34394042  0.04205639  0.33068367     0.08200
H1463       H  0.37321925  0.06228624  0.32001674     0.07300
H1464       H  0.43173495  0.02904618  0.38698111     0.02100
H1465       H  0.43558002  0.07618387  0.38769958     0.02600
H1466       H  0.46369953  0.05037387  0.37815532     0.06100
H1467       H  0.36644254  0.15264158  0.38731251     0.05100
H1468       H  0.36173465  0.13021496  0.37066062    -0.00700
H1469       H  0.39882882  0.12928172  0.37977004     0.00800
H1470       H  0.31023159  0.99841234  0.41098481     0.04500
H1471       H  0.34553089  0.00065678  0.42151818     0.06400
H1472       H  0.34511361  0.97751690  0.40491518     0.07300
C1473       C  0.46407319  0.23829299  0.48983960    -0.22300
C1474       C  0.44298518  0.21537155  0.49630299     0.09600
C1475       C  0.44170936  0.21339167  0.51125647     0.10000
C1476       C  0.46192913  0.23409172  0.51944957    -0.17300
C1477       C  0.48358738  0.25694873  0.51308559    -0.27700
C1478       C  0.48441673  0.25911074  0.49796085     0.18400
C1479       C  0.42225102  0.19373363  0.48722020     0.12300
C1480       C  0.41896647  0.18934506  0.51856190    -0.12000
H1481       H  0.46081582  0.23222710  0.53092709     0.12600
C1482       C  0.50702784  0.28236751  0.49012180    -0.22900
H1483       H  0.46470352  0.23967245  0.47833454     0.08300
C1484       C  0.39340286  0.20664181  0.48237919     0.04600
C1485       C  0.37368669  0.18457684  0.47456575    -0.20100
C1486       C  0.38176453  0.14959379  0.47164883    -0.12400
C1487       C  0.41117592  0.13702650  0.47615156     0.13300
C1488       C  0.43115996  0.15940372  0.48379259    -0.22800
C1489       C  0.38301424  0.24335654  0.48583953    -0.05900
H1490       H  0.35105596  0.19422426  0.47136287     0.14800
C1491       C  0.42176464  0.10033514  0.47282602    -0.16100
H1492       H  0.45353913  0.14984679  0.48743744     0.09200
H1493       H  0.50234318  0.31023673  0.49268662     0.07000
H1494       H  0.50492299  0.27950458  0.47840931     0.08200
H1495       H  0.53128239  0.27539330  0.49307107     0.07300
H1496       H  0.42355283  0.16185237  0.51536271     0.02100
H1497       H  0.39481278  0.19649614  0.51552386     0.02600
H1498       H  0.42085929  0.19100061  0.53031835     0.06100
H1499       H  0.35961872  0.24916149  0.48138712     0.05100
H1500       H  0.39978684  0.26247854  0.48132944    -0.00700
H1501       H  0.38184770  0.24685677  0.49754513     0.00800
H1502       H  0.42064208  0.09579402  0.46117730     0.04500
H1503       H  0.40683756  0.08100119  0.47838601     0.06400
H1504       H  0.44612595  0.09577072  0.47632827     0.07300
C1505       C  0.46611546  0.21232696  0.24911065    -0.22300
C1506       C  0.49177583  0.23173630  0.25371200     0.09600
C1507       C  0.51087003  0.21884711  0.26468543     0.10000
C1508       C  0.50353335  0.18666328  0.27100877    -0.17300
C1509       C  0.47755672  0.16706512  0.26655989    -0.27700
C1510       C  0.45863312  0.18013445  0.25535954     0.18400
C1511       C  0.49895060  0.26474063  0.24630738     0.12300
C1512       C  0.53893292  0.23906294  0.26966779    -0.12000
H1513       H  0.51796364  0.17697027  0.27960614     0.12600
C1514       C  0.42983927  0.16136685  0.25022474    -0.22900
H1515       H  0.45181439  0.22262118  0.24057437     0.08300
C1516       C  0.51423435  0.26431452  0.23307412     0.04600
C1517       C  0.51971235  0.29592410  0.22606303    -0.20100
C1518       C  0.51058544  0.32797553  0.23204074    -0.12400
C1519       C  0.49515728  0.32847642  0.24532184     0.13300
C1520       C  0.48953458  0.29663547  0.25232562    -0.22800
C1521       C  0.52522975  0.23054395  0.22647708    -0.05900
H1522       H  0.53194780  0.29570106  0.21597259     0.14800
C1523       C  0.48346608  0.36167561  0.25213732    -0.16100
H1524       H  0.47747188  0.29660936  0.26245586     0.09200
H1525       H  0.43629134  0.13563673  0.24560697     0.07000
H1526       H  0.41749332  0.17636597  0.24182035     0.08200
H1527       H  0.41332144  0.15765450  0.25917498     0.07300
H1528       H  0.53155580  0.26499599  0.27379402     0.02100
H1529       H  0.55532731  0.24293555  0.26067085     0.02600
H1530       H  0.55150990  0.22511960  0.27829557     0.06100
H1531       H  0.53741466  0.23508154  0.21622265     0.05100
H1532       H  0.50505902  0.21312603  0.22440970    -0.00700
H1533       H  0.54167667  0.21718810  0.23379489     0.00800
H1534       H  0.45801949  0.35948066  0.25403539     0.04500
H1535       H  0.48725566  0.38517117  0.24545626     0.06400
H1536       H  0.49536907  0.36566014  0.26248671     0.07300
C1537       C  0.45841115  0.52011636  0.25990379    -0.22300
C1538       C  0.43741484  0.54335844  0.25357805     0.09600
C1539       C  0.43572511  0.54529248  0.23862973     0.10000
C1540       C  0.45517975  0.52389049  0.23031573    -0.17300
C1541       C  0.47647739  0.50037049  0.23654873    -0.27700
C1542       C  0.47801651  0.49866179  0.25168112     0.18400
C1543       C  0.41698275  0.56496379  0.26285211     0.12300
C1544       C  0.41319017  0.56981582  0.23146085    -0.12000
H1545       H  0.45368758  0.52567042  0.21884101     0.12600
C1546       C  0.50057934  0.47518019  0.25944736    -0.22900
H1547       H  0.45947336  0.51889750  0.27140812     0.08300
C1548       C  0.38965785  0.55099798  0.26892041     0.04600
C1549       C  0.37034839  0.57267528  0.27714629    -0.20100
C1550       C  0.37749111  0.60822844  0.27942688    -0.12400
C1551       C  0.40585370  0.62163343  0.27394145     0.13300
C1552       C  0.42502204  0.59990296  0.26560200    -0.22800
C1553       C  0.38029927  0.51353720  0.26627978    -0.05900
H1554       H  0.34862199  0.56216331  0.28117371     0.14800
C1555       C  0.41703430  0.65830072  0.27688408    -0.16100
H1556       H  0.44642881  0.61031022  0.26118379     0.09200
H1557       H  0.49534266  0.44733461  0.25709375     0.07000
H1558       H  0.49902521  0.47845964  0.27116065     0.08200
H1559       H  0.52481985  0.48156149  0.25625926     0.07300
H1560       H  0.41847907  0.59723322  0.23452938     0.02100
H1561       H  0.38903148  0.56333901  0.23474535     0.02600
H1562       H  0.41456979  0.56792267  0.21969374     0.06100
H1563       H  0.35786373  0.50699357  0.27152540     0.05100
H1564       H  0.39841963  0.49562303  0.27050938    -0.00700
H1565       H  0.37760895  0.50899931  0.25468586     0.00800
H1566       H  0.44088097  0.65723763  0.28142686     0.04500
H1567       H  0.40233854  0.67236984  0.28469116     0.06400
H1568       H  0.41772741  0.67345441  0.26681362     0.07300
C1569       C  0.34049810  0.36244996  0.19434748    -0.22300
C1570       C  0.34947323  0.37211759  0.18059006     0.09600
C1571       C  0.32769623  0.37003424  0.16938279     0.10000
C1572       C  0.29720584  0.35827792  0.17226126    -0.17300
C1573       C  0.28835511  0.34833495  0.18607470    -0.27700
C1574       C  0.31023235  0.35097594  0.19729476     0.18400
C1575       C  0.38183809  0.38487344  0.17861192     0.12300
C1576       C  0.33669062  0.38019273  0.15448064    -0.12000
H1577       H  0.28035142  0.35652184  0.16372020     0.12600
C1578       C  0.30233543  0.34328628  0.21263297    -0.22900
H1579       H  0.35721486  0.36449446  0.20295067     0.08300
C1580       C  0.38999079  0.41958330  0.18199453     0.04600
C1581       C  0.42154102  0.42868815  0.18320108    -0.20100
C1582       C  0.44548229  0.40376024  0.18139801    -0.12400
C1583       C  0.43704814  0.36940923  0.17691370     0.13300
C1584       C  0.40533488  0.36058643  0.17559896    -0.22800
C1585       C  0.36529597  0.44670702  0.18488191    -0.05900
H1586       H  0.42733756  0.45523719  0.18626723     0.14800
C1587       C  0.46081638  0.34126330  0.17398640    -0.16100
H1588       H  0.39873027  0.33397337  0.17296059     0.09200
H1589       H  0.30698246  0.36691514  0.21917354     0.07000
H1590       H  0.31717317  0.32153970  0.21656101     0.08200
H1591       H  0.27766445  0.33606548  0.21436359     0.07300
H1592       H  0.35618732  0.36341906  0.15077966     0.02100
H1593       H  0.34417333  0.40799652  0.15424866     0.02600
H1594       H  0.31694985  0.37703615  0.14696460     0.06100
H1595       H  0.37558253  0.47268291  0.18733944     0.24300
H1596       H  0.35085141  0.43858989  0.19409980    -0.00700
H1597       H  0.35014895  0.44964371  0.17539762     0.00800
H1598       H  0.47382115  0.33491339  0.18385160     0.04500
H1599       H  0.47710956  0.35013640  0.16555600     0.06400
H1600       H  0.44978587  0.31665125  0.17022436     0.07300
C1601       C  0.71367263  0.21547165  0.98504212    -0.22300
C1602       C  0.73444710  0.22983092  0.99494022     0.09600
C1603       C  0.76292228  0.21301471  0.99785488     0.10000
C1604       C  0.76984686  0.18170673  0.99095282    -0.17300
C1605       C  0.74942566  0.16727220  0.98090738    -0.27700
C1606       C  0.72104888  0.18447943  0.97775804     0.18400
C1607       C  0.72611351  0.26217317  0.00249922     0.12300
C1608       C  0.78644606  0.22859499  0.00794458    -0.12000
H1609       H  0.79200107  0.16906173  0.99303737     0.12600
C1610       C  0.69841499  0.17021777  0.96696535    -0.22900
H1611       H  0.69183742  0.22874822  0.98294953     0.08300
C1612       C  0.72940977  0.29532867  0.99611745     0.04600
C1613       C  0.72462211  0.32536587  0.00437434    -0.20100
C1614       C  0.71751913  0.32277156  0.01891633    -0.12400
C1615       C  0.71404210  0.28925887  0.02523402     0.13300
C1616       C  0.71787575  0.25943820  0.01682456    -0.22800
C1617       C  0.73867374  0.29893420  0.98074022    -0.05900
H1618       H  0.72693271  0.35097212  0.99952368     0.14800
C1619       C  0.70611754  0.28433993  0.04074874    -0.16100
H1620       H  0.71554948  0.23366657  0.02154261     0.09200
H1621       H  0.67669420  0.18598025  0.96653379     0.07000
H1622       H  0.69202526  0.14289589  0.96974507     0.08200
H1623       H  0.70896846  0.17084184  0.95620657     0.07300
H1624       H  0.77653197  0.23020572  0.01881612     0.02100
H1625       H  0.79298822  0.25524506  0.00429175     0.02600
H1626       H  0.80801107  0.21259630  0.00852610     0.06100
H1627       H  0.74070034  0.32681437  0.97751343     0.05100
H1628       H  0.72092339  0.28634163  0.97386332    -0.00700
H1629       H  0.76156336  0.28613514  0.97896421     0.00800
H1630       H  0.70269780  0.25630989  0.04348268     0.04500
H1631       H  0.68429962  0.29837360  0.04341888     0.06400
H1632       H  0.72540149  0.29429280  0.04747263     0.07300
C1633       C  0.66027799  0.45104848  0.11785988    -0.22300
C1634       C  0.62884654  0.44124859  0.11857316     0.09600
C1635       C  0.61324027  0.43092286  0.10607973     0.10000
C1636       C  0.62969988  0.42946866  0.09320923    -0.17300
C1637       C  0.66146031  0.43825527  0.09246364    -0.27700
C1638       C  0.67683780  0.44975214  0.10494831     0.18400
C1639       C  0.61313632  0.43968411  0.13262536     0.12300
C1640       C  0.57939989  0.42056580  0.10641371    -0.12000
H1641       H  0.61775544  0.42091683  0.08367109     0.12600
C1642       C  0.71093020  0.45905593  0.10492070    -0.22900
H1643       H  0.67205862  0.45888019  0.12753603     0.08300
C1644       C  0.61639338  0.41024332  0.14151092     0.04600
C1645       C  0.59998448  0.40887582  0.15440269    -0.20100
C1646       C  0.58002167  0.43621395  0.15875405    -0.12400
C1647       C  0.57710586  0.46604566  0.14973194     0.13300
C1648       C  0.59374707  0.46724181  0.13683176    -0.22800
C1649       C  0.63684643  0.37993562  0.13724715    -0.05900
H1650       H  0.60267819  0.38589156  0.16104360     0.14800
C1651       C  0.55667413  0.49685462  0.15339503    -0.16100
H1652       H  0.59139571  0.48968620  0.12985467     0.09200
H1653       H  0.71937509  0.46577520  0.11574111     0.07000
H1654       H  0.71498054  0.48214487  0.09800023     0.08200
H1655       H  0.72484191  0.43652755  0.10099816     0.07300
H1656       H  0.56510130  0.44293608  0.11017353     0.02100
H1657       H  0.57611598  0.39803051  0.11372050     0.02600
H1658       H  0.57082396  0.41282652  0.09572818     0.06100
H1659       H  0.63657924  0.35871585  0.14532256     0.05100
H1660       H  0.66124954  0.38899068  0.13599472    -0.00700
H1661       H  0.62859608  0.36882796  0.12701242     0.00800
H1662       H  0.56435901  0.50863267  0.16359689     0.04500
H1663       H  0.53201694  0.48835658  0.15416010     0.06400
H1664       H  0.55781583  0.51767600  0.14516220     0.07300
C1665       C  0.80847732  0.52881879  0.00877328    -0.22300
C1666       C  0.79640567  0.53911615  0.99556351     0.09600
C1667       C  0.76746088  0.52571068  0.99104581     0.10000
C1668       C  0.75081646  0.50303593  0.00005231    -0.17300
C1669       C  0.76220580  0.49389622  0.01358159    -0.27700
C1670       C  0.79168486  0.50663775  0.01790167     0.18400
C1671       C  0.81479437  0.56396150  0.98675297     0.12300
C1672       C  0.75372891  0.53622014  0.97694479    -0.12000
H1673       H  0.72816278  0.49353969  0.99674228     0.12600
C1674       C  0.80586675  0.49654524  0.03198307    -0.22900
H1675       H  0.83100530  0.53874792  0.01204410     0.08300
C1676       C  0.81742956  0.59960213  0.99043214     0.04600
C1677       C  0.83858767  0.62099802  0.98306104    -0.20100
C1678       C  0.85766297  0.60765190  0.97212200    -0.12400
C1679       C  0.85299668  0.57226132  0.96774930     0.13300
C1680       C  0.83168382  0.55107268  0.97516967    -0.22800
C1681       C  0.79823552  0.61493685  0.00231251    -0.05900
H1682       H  0.84119899  0.64798108  0.98639101     0.14800
C1683       C  0.87076881  0.55574696  0.95564382    -0.16100
H1684       H  0.82913708  0.52372448  0.97232367     0.09200
H1685       H  0.82994539  0.50678057  0.03309982     0.07000
H1686       H  0.80684188  0.46758328  0.03292030     0.08200
H1687       H  0.79194513  0.50750640  0.04086074     0.07300
H1688       H  0.76934373  0.52784323  0.96818078     0.02100
H1689       H  0.75084337  0.56509341  0.97655633     0.02600
H1690       H  0.73057546  0.52402389  0.97518625     0.06100
H1691       H  0.80258583  0.64341314  0.00362296     0.05100
H1692       H  0.80399735  0.60184914  0.01251091    -0.00700
H1693       H  0.77310828  0.61120918  0.99998942     0.00800
H1694       H  0.89584342  0.55372227  0.95836757     0.04500
H1695       H  0.86759709  0.57146858  0.94581643     0.06400
H1696       H  0.86248533  0.52879312  0.95333591     0.07300
C1697       C  0.84065933  0.37054622  0.05863687    -0.22300
C1698       C  0.85292696  0.37232295  0.07241088     0.09600
C1699       C  0.83440010  0.38534374  0.08362362     0.10000
C1700       C  0.80371663  0.39615553  0.08076711    -0.17300
C1701       C  0.79163809  0.39453065  0.06693133    -0.27700
C1702       C  0.81029870  0.38156742  0.05572087     0.18400
C1703       C  0.88567905  0.36135526  0.07443415     0.12300
C1704       C  0.84699656  0.38768193  0.09851837    -0.12000
H1705       H  0.78929651  0.40638614  0.08926966     0.12600
C1706       C  0.79904665  0.37903011  0.04054875    -0.22900
H1707       H  0.85508769  0.36076603  0.05003779     0.08300
C1708       C  0.89431396  0.32585041  0.07367973     0.04600
C1709       C  0.92590590  0.31706500  0.07265716    -0.20100
C1710       C  0.94926827  0.34296280  0.07205807    -0.12400
C1711       C  0.94049213  0.37857195  0.07395201     0.13300
C1712       C  0.90876096  0.38715885  0.07511587    -0.22800
C1713       C  0.87011561  0.29727316  0.07353978    -0.05900
H1714       H  0.93217761  0.28970625  0.07158444     0.14800
C1715       C  0.96384628  0.40802586  0.07404151    -0.16100
H1716       H  0.90174906  0.41438951  0.07573619     0.09200
H1717       H  0.79977791  0.35128315  0.03704195     0.07000
H1718       H  0.81449594  0.39474230  0.03355283     0.08200
H1719       H  0.77496095  0.38868941  0.03906100     0.07300
H1720       H  0.86745027  0.40542312  0.09875027     0.02100
H1721       H  0.85416116  0.36127002  0.10220772     0.02600
H1722       H  0.82932873  0.39804668  0.10604780     0.06100
H1723       H  0.88088835  0.27084773  0.07319227     0.05100
H1724       H  0.85493761  0.29998945  0.06406010    -0.00700
H1725       H  0.85563428  0.29901300  0.08329523     0.00800
H1726       H  0.97611755  0.40929643  0.06367104     0.04500
H1727       H  0.98083533  0.40401567  0.08278423     0.06400
H1728       H  0.95255606  0.43383945  0.07578372     0.07300
C1729       C  0.16701571  0.39489600  0.01166476    -0.22300
C1730       C  0.15861974  0.43010361  0.00986215     0.09600
C1731       C  0.13218346  0.44331348  0.01692987     0.10000
C1732       C  0.11471885  0.42096635  0.02567445    -0.17300
C1733       C  0.12232586  0.38527483  0.02719091    -0.27700
C1734       C  0.14902333  0.37213604  0.02010447     0.18400
C1735       C  0.17822716  0.45286819  0.00073312     0.12300
C1736       C  0.12181676  0.48069400  0.01488774    -0.12000
H1737       H  0.09393960  0.43113059  0.03075972     0.12600
C1738       C  0.15892141  0.33442489  0.02145960    -0.22900
H1739       H  0.18753881  0.38510877  0.00625347     0.08300
C1740       C  0.20278880  0.47258643  0.00655600     0.04600
C1741       C  0.22104290  0.49354510  0.99759860    -0.20100
C1742       C  0.21590874  0.49482948  0.98281742    -0.12400
C1743       C  0.19108670  0.47495909  0.97698181     0.13300
C1744       C  0.17244330  0.45440780  0.98606589    -0.22800
C1745       C  0.21016927  0.47090551  0.02220773    -0.05900
H1746       H  0.24014704  0.50824014  0.00217535     0.14800
C1747       C  0.18365934  0.47565557  0.96132256    -0.16100
H1748       H  0.15340891  0.43918386  0.98171515     0.09200
H1749       H  0.18155448  0.32954156  0.01609496     0.07000
H1750       H  0.14148386  0.31698757  0.01642318     0.08200
H1751       H  0.16155853  0.32746360  0.03285847     0.07300
H1752       H  0.11675823  0.48547598  0.00347528     0.02100
H1753       H  0.14036771  0.49891931  0.01841518     0.02600
H1754       H  0.10039720  0.48664518  0.02105978     0.06100
H1755       H  0.23033792  0.48773003  0.02500876     0.05100
H1756       H  0.21590957  0.44355860  0.02523196    -0.00700
H1757       H  0.18983696  0.47983172  0.02851563     0.00800
H1758       H  0.20307205  0.46395315  0.95515904     0.04500
H1759       H  0.17971422  0.50305489  0.95780866     0.06400
H1760       H  0.16234273  0.46036686  0.95885094     0.07300
C1761       C  0.14297322  0.58770015  0.92393641    -0.22300
C1762       C  0.13547497  0.62238262  0.92731498     0.09600
C1763       C  0.15954456  0.64633829  0.93037204     0.10000
C1764       C  0.19037182  0.63433004  0.93125187    -0.17300
C1765       C  0.19767429  0.59876026  0.92932359    -0.27700
C1766       C  0.17379986  0.57552271  0.92481512     0.18400
C1767       C  0.10236250  0.63179305  0.92966828     0.12300
C1768       C  0.15251856  0.68438062  0.93313384    -0.12000
H1769       H  0.20849672  0.65246293  0.93442388     0.12600
C1770       C  0.18036251  0.53788694  0.92098671    -0.22900
H1771       H  0.12435849  0.56960318  0.92136458     0.08300
C1772       C  0.08132785  0.63795149  0.91841122     0.04600
C1773       C  0.05033249  0.64723413  0.92155376    -0.20100
C1774       C  0.04023191  0.65052724  0.93568953    -0.12400
C1775       C  0.06120857  0.64352095  0.94692791     0.13300
C1776       C  0.09194731  0.63424749  0.94374996    -0.22800
C1777       C  0.09175986  0.63532309  0.90317510    -0.05900
H1778       H  0.03408041  0.65241223  0.91299450     0.14800
C1779       C  0.05195648  0.64509198  0.96240432    -0.16100
H1780       H  0.10805507  0.62892534  0.95236467     0.09200
H1781       H  0.19939329  0.53668877  0.91300566     0.07000
H1782       H  0.15958614  0.52497360  0.91630574     0.08200
H1783       H  0.18689998  0.52266051  0.93056596     0.07300
H1784       H  0.13738978  0.68706528  0.94263514     0.02100
H1785       H  0.14045508  0.69577297  0.92377278     0.02600
H1786       H  0.17406971  0.69972592  0.93505902     0.06100
H1787       H  0.07255090  0.64151697  0.89568119     0.05100
H1788       H  0.09994810  0.60833457  0.90091048    -0.00700
H1789       H  0.11108397  0.65402194  0.90122154     0.00800
H1790       H  0.05627369  0.61925474  0.96744669     0.04500
H1791       H  0.02709469  0.65166763  0.96406461     0.06400
H1792       H  0.06622483  0.66513912  0.96792931     0.07300
C1793       C  0.34785636  0.53396194  0.88744371    -0.22300
C1794       C  0.36648638  0.56254025  0.88365035     0.09600
C1795       C  0.36874345  0.59136463  0.89291781     0.10000
C1796       C  0.35194628  0.59123381  0.90571535    -0.17300
C1797       C  0.33254066  0.56300090  0.90958710    -0.27700
C1798       C  0.33082774  0.53366160  0.90025151     0.18400
C1799       C  0.38268646  0.56253083  0.86969520     0.12300
C1800       C  0.38895014  0.62235728  0.88927739    -0.12000
H1801       H  0.35376463  0.61380292  0.91263422     0.12600
C1802       C  0.31138761  0.50179021  0.90352431    -0.22900
H1803       H  0.34638021  0.51191990  0.88021652     0.08300
C1804       C  0.41153107  0.54562138  0.86771843     0.04600
C1805       C  0.42681354  0.54843010  0.85454453    -0.20100
C1806       C  0.41413366  0.56816834  0.84329028    -0.12400
C1807       C  0.38467143  0.58447601  0.84528074     0.13300
C1808       C  0.36940098  0.58123299  0.85842962    -0.22800
C1809       C  0.42644134  0.52526707  0.87962151    -0.05900
H1810       H  0.44921317  0.53580107  0.85317370     0.14800
C1811       C  0.36870998  0.60496925  0.83366028    -0.16100
H1812       H  0.34711667  0.59395432  0.86006771     0.09200
H1813       H  0.31880334  0.49019185  0.91380776     0.07000
H1814       H  0.31392585  0.48125013  0.89524589     0.08200
H1815       H  0.28637387  0.50902018  0.90394761     0.07300
H1816       H  0.38063411  0.63472046  0.87929528     0.02100
H1817       H  0.41341454  0.61364563  0.88783998     0.02600
H1818       H  0.38851579  0.64252912  0.89777544     0.06100
H1819       H  0.44918189  0.51394285  0.87637965     0.05100
H1820       H  0.41093622  0.50345519  0.88289199    -0.00700
H1821       H  0.43047364  0.54276319  0.88886301     0.00800
H1822       H  0.36626105  0.58846702  0.82400785     0.04500
H1823       H  0.38222796  0.62892913  0.83113526     0.06400
H1824       H  0.34502628  0.61357338  0.83687672     0.07300
C1825       C  0.60160188  0.44932479  0.73321881    -0.22300
C1826       C  0.57922943  0.43224927  0.74148131     0.09600
C1827       C  0.57613940  0.39560101  0.74053653     0.10000
C1828       C  0.59659274  0.37659920  0.73177620    -0.17300
C1829       C  0.62023185  0.39335357  0.72391154    -0.27700
C1830       C  0.62226175  0.43056094  0.72450445     0.18400
C1831       C  0.55935653  0.45353873  0.75105129     0.12300
C1832       C  0.55171856  0.37655934  0.74904085    -0.12000
H1833       H  0.59472080  0.34830822  0.73145010     0.12600
C1834       C  0.64699994  0.45096266  0.71669639    -0.22900
H1835       H  0.60344594  0.47759357  0.73394126     0.08300
C1836       C  0.56907817  0.46287413  0.76488324     0.04600
C1837       C  0.54973463  0.48410745  0.77334411    -0.20100
C1838       C  0.52103725  0.49641220  0.76820417    -0.12400
C1839       C  0.51102544  0.48603436  0.75444124     0.13300
C1840       C  0.53057141  0.46522252  0.74600723    -0.22800
C1841       C  0.59988471  0.45050722  0.77065082    -0.05900
H1842       H  0.55721904  0.49154364  0.78391929     0.14800
C1843       C  0.47945316  0.49491179  0.74839763    -0.16100
H1844       H  0.52310396  0.45761654  0.73543925     0.09200
H1845       H  0.67038745  0.44267210  0.72038904     0.07000
H1846       H  0.64506520  0.47956717  0.71863199     0.08200
H1847       H  0.64472139  0.44674631  0.70506839     0.07300
H1848       H  0.52822742  0.38609031  0.74599524     0.02100
H1849       H  0.55541117  0.38133818  0.76055933     0.02600
H1850       H  0.55254134  0.34786233  0.74717913     0.06100
H1851       H  0.60390847  0.46001281  0.78165677     0.05100
H1852       H  0.61909512  0.46034240  0.76383323    -0.00700
H1853       H  0.60048481  0.42145349  0.77079511     0.00800
H1854       H  0.48234693  0.51144626  0.73877673     0.04500
H1855       H  0.46400784  0.50869596  0.75593795     0.06400
H1856       H  0.46730055  0.47037775  0.74534302     0.07300
C1857       C  0.60728635  0.58863144  0.82323542    -0.22300
C1858       C  0.61130579  0.62367822  0.82709213     0.09600
C1859       C  0.58510766  0.64438437  0.83026158     0.10000
C1860       C  0.55521990  0.63033523  0.82835495    -0.17300
C1861       C  0.55081339  0.59610994  0.82308487    -0.27700
C1862       C  0.57749366  0.57440945  0.82116958     0.18400
C1863       C  0.64245059  0.63943219  0.82505969     0.12300
C1864       C  0.58876165  0.68162978  0.83525555    -0.12000
H1865       H  0.53526719  0.64701042  0.83028850     0.12600
C1866       C  0.57544560  0.53676923  0.81639361    -0.22900
H1867       H  0.62771533  0.57298183  0.82089467     0.08300
C1868       C  0.66745700  0.63322043  0.83443066     0.04600
C1869       C  0.69731613  0.64542685  0.83081276    -0.20100
C1870       C  0.70247700  0.66393263  0.81810111    -0.12400
C1871       C  0.67707493  0.67072609  0.80889071     0.13300
C1872       C  0.64746629  0.65832654  0.81251546    -0.22800
C1873       C  0.66256596  0.61374789  0.84816442    -0.05900
H1874       H  0.71675159  0.64025202  0.83785577     0.14800
C1875       C  0.68112200  0.68937112  0.79485720    -0.16100
H1876       H  0.62811967  0.66247873  0.80530124     0.09200
H1877       H  0.56052951  0.52169056  0.82384362     0.07000
H1878       H  0.59864424  0.52390837  0.81619464     0.08200
H1879       H  0.56595746  0.53534545  0.80543680     0.07300
H1880       H  0.60067197  0.69747741  0.82699509     0.02100
H1881       H  0.60279381  0.68210238  0.84516688     0.02600
H1882       H  0.56590596  0.69404699  0.83751696     0.06100
H1883       H  0.68446812  0.61165656  0.85438338     0.05100
H1884       H  0.65407123  0.58686694  0.84594787    -0.00700
H1885       H  0.64509708  0.62775902  0.85475316     0.00800
H1886       H  0.65909018  0.69027763  0.78868590     0.04500
H1887       H  0.69877873  0.67562640  0.78828112     0.06400
H1888       H  0.68854672  0.71679335  0.79671240     0.07300
C1889       C  0.65883464  0.10498153  0.52596054    -0.22300
C1890       C  0.63458413  0.11438425  0.53509949     0.09600
C1891       C  0.62094650  0.08911080  0.54409104     0.10000
C1892       C  0.63369916  0.05538651  0.54455228    -0.17300
C1893       C  0.65891474  0.04626369  0.53584208    -0.27700
C1894       C  0.67124976  0.07113852  0.52615940     0.18400
C1895       C  0.62403757  0.15101768  0.53515630     0.12300
C1896       C  0.59285431  0.09762690  0.55306319    -0.12000
H1897       H  0.62431184  0.03619050  0.55188197     0.12600
C1898       C  0.69840466  0.06391812  0.51639781    -0.22900
H1899       H  0.66872804  0.12450853  0.51891161     0.08300
C1900       C  0.63333880  0.17448506  0.54592357     0.04600
C1901       C  0.62043060  0.20813730  0.54621195    -0.20100
C1902       C  0.59944226  0.21902969  0.53568302    -0.12400
C1903       C  0.59179413  0.19614114  0.52436713     0.13300
C1904       C  0.60419806  0.16225159  0.52429587    -0.22800
C1905       C  0.65703082  0.16414711  0.55698334    -0.05900
H1906       H  0.62639863  0.22590160  0.55477533     0.14800
C1907       C  0.56927685  0.20646560  0.51279331    -0.16100
H1908       H  0.59776614  0.14404892  0.51595479     0.09200
H1909       H  0.71778725  0.08212572  0.51891429     0.07000
H1910       H  0.69112735  0.06820802  0.50520393     0.08200
H1911       H  0.70756944  0.03702170  0.51720678     0.07300
H1912       H  0.57339759  0.10603298  0.54608276     0.02100
H1913       H  0.59822611  0.11900572  0.56063638     0.02600
H1914       H  0.58494189  0.07459299  0.55930297     0.06100
H1915       H  0.66190570  0.18592203  0.56448206     0.05100
H1916       H  0.67920166  0.15688800  0.55167414    -0.00700
H1917       H  0.64862351  0.14149177  0.56326736     0.00800
H1918       H  0.56527464  0.18478259  0.50514393     0.04500
H1919       H  0.57866043  0.22902344  0.50671371     0.06400
H1920       H  0.54646384  0.21358552  0.51752430     0.07300
C1921       C  0.57386990  0.85807524  0.51622017    -0.22300
C1922       C  0.58144457  0.82274342  0.51403596     0.09600
C1923       C  0.60918675  0.80924868  0.51986699     0.10000
C1924       C  0.62903553  0.83154414  0.52752149    -0.17300
C1925       C  0.62241357  0.86744627  0.52917219    -0.27700
C1926       C  0.59411316  0.88072925  0.52359609     0.18400
C1927       C  0.56102454  0.80091637  0.50484354     0.12300
C1928       C  0.61830518  0.77154637  0.51764227    -0.12000
H1929       H  0.65074644  0.82113577  0.53160840     0.12600
C1930       C  0.58496085  0.91853740  0.52541990    -0.22900
H1931       H  0.55241198  0.86817552  0.51174984     0.08300
C1932       C  0.53573012  0.78182926  0.51040854     0.04600
C1933       C  0.51693343  0.76205443  0.50117190    -0.20100
C1934       C  0.52262719  0.76097581  0.48640769    -0.12400
C1935       C  0.54848764  0.77975416  0.48092805     0.13300
C1936       C  0.56728858  0.79940596  0.49022905    -0.22800
C1937       C  0.52849594  0.78252989  0.52607826    -0.05900
H1938       H  0.49722772  0.74791910  0.50550858     0.14800
C1939       C  0.55708220  0.77855047  0.46540916    -0.16100
H1940       H  0.58703402  0.81383771  0.48608641     0.09200
H1941       H  0.58525175  0.92552758  0.53687659     0.07000
H1942       H  0.56117819  0.92367228  0.52127626     0.08200
H1943       H  0.60122678  0.93573808  0.51949585     0.07300
H1944       H  0.62053956  0.76606135  0.50609753     0.02100
H1945       H  0.60029720  0.75405984  0.52223991     0.02600
H1946       H  0.64093279  0.76531323  0.52277206     0.06100
H1947       H  0.50789365  0.76618055  0.52869788     0.05100
H1948       H  0.52357003  0.80980298  0.52947582    -0.00700
H1949       H  0.54866114  0.77236442  0.53219326     0.00800
H1950       H  0.57917257  0.79270170  0.46324667     0.04500
H1951       H  0.53863878  0.79109612  0.45891649     0.06400
H1952       H  0.56024775  0.75095446  0.46204674     0.07300
C1953       C  0.62998414  0.08758788  0.70816911    -0.22300
C1954       C  0.61244624  0.11407693  0.71470818     0.09600
C1955       C  0.58333108  0.10608997  0.72080723     0.10000
C1956       C  0.57238715  0.07157203  0.72028381    -0.17300
C1957       C  0.58967704  0.04516289  0.71357968    -0.27700
C1958       C  0.61882118  0.05311293  0.70744038     0.18400
C1959       C  0.62485069  0.15013892  0.71487707     0.12300
C1960       C  0.56367198  0.13409148  0.72763696    -0.12000
H1961       H  0.54977101  0.06531398  0.72475172     0.12600
C1962       C  0.63850951  0.02599054  0.70005717    -0.22900
H1963       H  0.65234938  0.09396126  0.70348170     0.08300
C1964       C  0.64501392  0.16159858  0.72573613     0.04600
C1965       C  0.65738749  0.19553883  0.72508155    -0.20100
C1966       C  0.65024498  0.21802245  0.71372337    -0.12400
C1967       C  0.62865243  0.20707271  0.70325345     0.13300
C1968       C  0.61645410  0.17307213  0.70390814    -0.22800
C1969       C  0.65402609  0.13766723  0.73778417    -0.05900
H1970       H  0.67400671  0.20388345  0.73306990     0.14800
C1971       C  0.61763396  0.23062534  0.69140457    -0.16100
H1972       H  0.60037759  0.16429163  0.69576413     0.09200
H1973       H  0.66151656  0.02421565  0.70538998     0.07000
H1974       H  0.64209499  0.03374002  0.68879565     0.08200
H1975       H  0.62784990  0.99955665  0.70020959     0.07300
H1976       H  0.55791260  0.15456885  0.71967988     0.02100
H1977       H  0.57659899  0.14622290  0.73658228     0.02600
H1978       H  0.54149364  0.12334432  0.73186814     0.06100
H1979       H  0.67004856  0.15072907  0.74537882     0.05100
H1980       H  0.66592788  0.11410019  0.73351933    -0.00700
H1981       H  0.63289057  0.12944238  0.74370190     0.00800
H1982       H  0.62508569  0.21971207  0.68100650     0.04500
H1983       H  0.62647037  0.25777771  0.69233200     0.06400
H1984       H  0.59181426  0.23214814  0.69161768     0.07300
C1985       C  0.53862520  0.78238959  0.74911011    -0.22300
C1986       C  0.50878193  0.76829270  0.74773807     0.09600
C1987       C  0.48568489  0.78662417  0.74010652     0.10000
C1988       C  0.49367288  0.81808726  0.73332538    -0.17300
C1989       C  0.52376948  0.83212768  0.73457430    -0.27700
C1990       C  0.54652865  0.81409801  0.74267775     0.18400
C1991       C  0.50213414  0.73551674  0.75537455     0.12300
C1992       C  0.45257004  0.77365181  0.73949836    -0.12000
H1993       H  0.47634871  0.83194727  0.72710402     0.12600
C1994       C  0.57970933  0.82623221  0.74443191    -0.22900
H1995       H  0.55601378  0.76832790  0.75523299     0.08300
C1996       C  0.50235937  0.70271755  0.74852621     0.04600
C1997       C  0.49643271  0.67247879  0.75654622    -0.20100
C1998       C  0.49183548  0.67423674  0.77134164    -0.12400
C1999       C  0.49377587  0.70727831  0.77826277     0.13300
C2000       C  0.49835814  0.73741898  0.77009252    -0.22800
C2001       C  0.50981909  0.69952628  0.73291772    -0.05900
H2002       H  0.49556420  0.64731101  0.75124236     0.14800
C2003       C  0.49065392  0.71163141  0.79416444    -0.16100
H2004       H  0.49934280  0.76282521  0.77521966     0.09200
H2005       H  0.59570858  0.80578280  0.74031199     0.07000
H2006       H  0.58469455  0.83043750  0.75588767     0.08200
H2007       H  0.58508940  0.85071391  0.73876305     0.07300
H2008       H  0.44300894  0.77171543  0.75043941     0.02100
H2009       H  0.45152238  0.74751122  0.73442872     0.02600
H2010       H  0.43742795  0.79163681  0.73330765     0.06100
H2011       H  0.50957429  0.67181235  0.72935044     0.05100
H2012       H  0.53338005  0.71033664  0.73083753    -0.00700
H2013       H  0.49261436  0.71414415  0.72645780     0.00800
H2014       H  0.50983283  0.69752512  0.79962298     0.04500
H2015       H  0.46787460  0.70150244  0.79788427     0.06400
H2016       H  0.49210247  0.73952687  0.79742981     0.07300
C2017       C  0.58666204  0.96639505  0.63489306    -0.22300
C2018       C  0.61362052  0.94665446  0.63252226     0.09600
C2019       C  0.62538970  0.92522447  0.64345432     0.10000
C2020       C  0.60947065  0.92331796  0.65645389    -0.17300
C2021       C  0.58191615  0.94245719  0.65892905    -0.27700
C2022       C  0.57062631  0.96475449  0.64793873     0.18400
C2023       C  0.62874037  0.94768493  0.61834856     0.12300
C2024       C  0.65471542  0.90416242  0.64134632    -0.12000
H2025       H  0.61872275  0.90655591  0.66473200     0.12600
C2026       C  0.54147197  0.98637716  0.64957410    -0.22900
H2027       H  0.57793202  0.98283106  0.62638368     0.08300
C2028       C  0.62068492  0.92350905  0.60768213     0.04600
C2029       C  0.63737613  0.92329043  0.59486534    -0.20100
C2030       C  0.66216020  0.94673366  0.59232237    -0.12400
C2031       C  0.66922401  0.97210280  0.60294240     0.13300
C2032       C  0.65242584  0.97204475  0.61580271    -0.22800
C2033       C  0.59466108  0.89761280  0.60991812    -0.05900
H2034       H  0.63112586  0.90417177  0.58685608     0.14800
C2035       C  0.69459671  0.99900079  0.60111823    -0.16100
H2036       H  0.65818479  0.99067666  0.62408555     0.09200
H2037       H  0.53588708  0.00117472  0.63972992     0.07000
H2038       H  0.54458993  0.00582049  0.65822369     0.08200
H2039       H  0.52134665  0.96910015  0.65195530     0.07300
H2040       H  0.67444078  0.92198885  0.63894241     0.02100
H2041       H  0.65165186  0.88561687  0.63237486     0.02600
H2042       H  0.66079920  0.88876261  0.65097142     0.06100
H2043       H  0.59128490  0.88050726  0.60049816     0.05100
H2044       H  0.57254626  0.91184561  0.61191076    -0.00700
H2045       H  0.59992199  0.88063664  0.61919064     0.00800
H2046       H  0.68940245  0.01588280  0.59180405     0.04500
H2047       H  0.71741006  0.98579654  0.59968893     0.06400
H2048       H  0.69660810  0.01638702  0.61053771     0.07300
C2049       C  0.72783041  0.79562562  0.74215515    -0.22300
C2050       C  0.69896446  0.80734231  0.74718295     0.09600
C2051       C  0.68832909  0.79588812  0.76063446     0.10000
C2052       C  0.70750335  0.77427571  0.76902550    -0.17300
C2053       C  0.73641538  0.76235734  0.76400051    -0.27700
C2054       C  0.74656559  0.77302986  0.75030308     0.18400
C2055       C  0.67952723  0.83010351  0.73788327     0.12300
C2056       C  0.65631496  0.80543628  0.76592079    -0.12000
H2057       H  0.69958118  0.76598507  0.77943295     0.12600
C2058       C  0.77747179  0.76147972  0.74431921    -0.22900
H2059       H  0.73562324  0.80408488  0.73174153     0.08300
C2060       C  0.67769856  0.86663965  0.73983782     0.04600
C2061       C  0.65628477  0.88625831  0.73177294    -0.20100
C2062       C  0.63668159  0.87035609  0.72161978    -0.12400
C2063       C  0.64081542  0.83388186  0.71886123     0.13300
C2064       C  0.66211270  0.81448977  0.72705727    -0.22800
C2065       C  0.69831383  0.88488511  0.75046233    -0.05900
H2066       H  0.65408399  0.91405113  0.73384534     0.14800
C2067       C  0.62215155  0.81427531  0.70784991    -0.16100
H2068       H  0.66435382  0.78650787  0.72540289     0.09200
H2069       H  0.79651214  0.76885588  0.75168960     0.07000
H2070       H  0.78233366  0.77382899  0.73385700     0.08200
H2071       H  0.77752676  0.73270124  0.74273928     0.07300
H2072       H  0.63856767  0.79525651  0.75841876     0.02100
H2073       H  0.65385312  0.83425159  0.76673675     0.02600
H2074       H  0.65154268  0.79401639  0.77656268     0.06100
H2075       H  0.69417613  0.91358531  0.75059160     0.05100
H2076       H  0.72310156  0.88030263  0.74767077    -0.00700
H2077       H  0.69394133  0.87468596  0.76131783     0.00800
H2078       H  0.62530088  0.82663753  0.69726090     0.04500
H2079       H  0.59714969  0.81397260  0.71084164     0.06400
H2080       H  0.62966885  0.78654588  0.70690112     0.07300
C2081       C  0.77141137  0.78720219  0.51620448    -0.22300
C2082       C  0.74844417  0.77197763  0.50762479     0.09600
C2083       C  0.71977888  0.78901395  0.50551532     0.10000
C2084       C  0.71460512  0.82117797  0.51210353    -0.17300
C2085       C  0.73732664  0.83648195  0.52083591    -0.27700
C2086       C  0.76628584  0.81953240  0.52283769     0.18400
C2087       C  0.75556060  0.73948740  0.49997814     0.12300
C2088       C  0.69471032  0.77327334  0.49630069    -0.12000
H2089       H  0.69227746  0.83401536  0.51074474     0.12600
C2090       C  0.79253083  0.83513463  0.53139056    -0.22900
H2091       H  0.79362807  0.77409352  0.51748941     0.08300
C2092       C  0.77111532  0.74063842  0.48682038     0.04600
C2093       C  0.77566336  0.70955849  0.47933905    -0.20100
C2094       C  0.76532756  0.67742851  0.48480998    -0.12400
C2095       C  0.74945608  0.67627242  0.49795544     0.13300
C2096       C  0.74480902  0.70755108  0.50543717    -0.22800
C2097       C  0.78289296  0.77463631  0.48070007    -0.05900
H2098       H  0.78823953  0.71018635  0.46933967     0.14800
C2099       C  0.73636651  0.64296439  0.50412494    -0.16100
H2100       H  0.73234592  0.70716086  0.51546475     0.09200
H2101       H  0.81364906  0.83712160  0.52462062     0.07000
H2102       H  0.79779306  0.81796516  0.54060987     0.08200
H2103       H  0.78738912  0.86180630  0.53535969     0.07300
H2104       H  0.68745113  0.74758401  0.50071581     0.02100
H2105       H  0.70364005  0.76951051  0.48532904     0.02600
H2106       H  0.67379998  0.79033192  0.49572723     0.06100
H2107       H  0.79447263  0.77072929  0.47025847     0.05100
H2108       H  0.80009023  0.78653986  0.48805961    -0.00700
H2109       H  0.76317350  0.79304418  0.47915811     0.00800
H2110       H  0.74777360  0.63735600  0.51446761     0.04500
H2111       H  0.73954636  0.62002669  0.49706391     0.06400
H2112       H  0.71095807  0.64615742  0.50589954     0.07300
C2113       C  0.65551712  0.45139674  0.52108796    -0.22300
C2114       C  0.67947991  0.43422874  0.51384990     0.09600
C2115       C  0.68309139  0.39775887  0.51542431     0.10000
C2116       C  0.66076637  0.37878676  0.52319721    -0.17300
C2117       C  0.63537999  0.39560601  0.52979988    -0.27700
C2118       C  0.63359559  0.43280890  0.52917180     0.18400
C2119       C  0.70015158  0.45543873  0.50462686     0.12300
C2120       C  0.71050934  0.37898069  0.50896470    -0.12000
H2121       H  0.66276142  0.35055035  0.52382417     0.12600
C2122       C  0.60826389  0.45348017  0.53647017    -0.22900
H2123       H  0.65356119  0.47959352  0.52008906     0.08300
C2124       C  0.69478623  0.45860586  0.48987622     0.04600
C2125       C  0.71375291  0.48096677  0.48175857    -0.20100
C2126       C  0.73728348  0.50124966  0.48810715    -0.12400
C2127       C  0.74223667  0.49823024  0.50301384     0.13300
C2128       C  0.72370451  0.47519559  0.51099931    -0.22800
C2129       C  0.66841102  0.43929743  0.48279098    -0.05900
H2130       H  0.70972067  0.48316567  0.47041273     0.14800
C2131       C  0.76718839  0.51860156  0.51068348    -0.16100
H2132       H  0.72723242  0.47292391  0.52238119     0.09200
H2133       H  0.58509466  0.44566728  0.53239451     0.07000
H2134       H  0.61071073  0.48207336  0.53462497     0.08200
H2135       H  0.60938979  0.44905137  0.54812279     0.07300
H2136       H  0.73243702  0.38990724  0.51336225     0.02100
H2137       H  0.71061827  0.38228807  0.49725584     0.02600
H2138       H  0.70997792  0.35049776  0.51133037     0.06100
H2139       H  0.66719003  0.44512854  0.47123399     0.05100
H2140       H  0.64595064  0.44717011  0.48768845    -0.00700
H2141       H  0.67146224  0.41064865  0.48405131     0.00800
H2142       H  0.76195434  0.54702898  0.51021055     0.04500
H2143       H  0.79023554  0.51337294  0.50580951     0.06400
H2144       H  0.76867811  0.51127443  0.52209363     0.07300
C2145       C  0.66556297  0.63839694  0.42247284    -0.22300
C2146       C  0.64131353  0.62187413  0.42985427     0.09600
C2147       C  0.64807391  0.59261581  0.43846734     0.10000
C2148       C  0.67915052  0.58204992  0.44026535    -0.17300
C2149       C  0.70398018  0.60020359  0.43379520    -0.27700
C2150       C  0.69679762  0.62803638  0.42429685     0.18400
C2151       C  0.60972727  0.63798117  0.42987719     0.12300
C2152       C  0.62259549  0.57345859  0.44628224    -0.12000
H2153       H  0.68407577  0.56041485  0.44737957     0.12600
C2154       C  0.72161478  0.64713469  0.41603195    -0.22900
H2155       H  0.66008362  0.66054998  0.41570770     0.08300
C2156       C  0.60332713  0.66745709  0.43841665     0.04600
C2157       C  0.57264298  0.67969631  0.43957845    -0.20100
C2158       C  0.54770098  0.66297881  0.43263285    -0.12400
C2159       C  0.55445913  0.63425615  0.42351586     0.13300
C2160       C  0.58541310  0.62227979  0.42224587    -0.22800
C2161       C  0.62871693  0.68518806  0.44682264    -0.05900
H2162       H  0.56801541  0.70161282  0.44655623     0.14800
C2163       C  0.52948343  0.61600531  0.41505619    -0.16100
H2164       H  0.59058957  0.59982274  0.41560560     0.09200
H2165       H  0.73666450  0.66236387  0.42334322     0.07000
H2166       H  0.71140105  0.66596398  0.40833076     0.08200
H2167       H  0.73586553  0.62809014  0.40992807     0.07300
H2168       H  0.60576941  0.56238942  0.43854162     0.02100
H2169       H  0.61022102  0.59175194  0.45350988     0.02600
H2170       H  0.63191097  0.55152752  0.45277053     0.06100
H2171       H  0.61960223  0.70733058  0.45324855     0.05100
H2172       H  0.64667739  0.69571953  0.43949544    -0.00700
H2173       H  0.63967955  0.66610339  0.45419100     0.00800
H2174       H  0.53943917  0.59612230  0.40773465     0.04500
H2175       H  0.51656492  0.63539824  0.40852922     0.06400
H2176       H  0.51321499  0.60213509  0.42228178     0.07300
C2177       C  0.88273776  0.58398852  0.39572163    -0.22300
C2178       C  0.86693320  0.56780590  0.38448434     0.09600
C2179       C  0.83715901  0.55345010  0.38684592     0.10000
C2180       C  0.82348305  0.55632338  0.40036396    -0.17300
C2181       C  0.83872826  0.57358690  0.41160574    -0.27700
C2182       C  0.86909663  0.58714183  0.40925646     0.18400
C2183       C  0.88132040  0.56790017  0.37013211     0.12300
C2184       C  0.81962841  0.53569313  0.37500480    -0.12000
H2185       H  0.80035882  0.54574031  0.40204475     0.12600
C2186       C  0.88765662  0.60431695  0.42093697    -0.22900
H2187       H  0.90571336  0.59475140  0.39378797     0.08300
C2188       C  0.87816299  0.59696411  0.36104689     0.04600
C2189       C  0.89219650  0.59630240  0.34758460    -0.20100
C2190       C  0.90961746  0.56723216  0.34283406    -0.12400
C2191       C  0.91252520  0.53783827  0.35207371     0.13300
C2192       C  0.89828642  0.53868749  0.36557070    -0.22800
C2193       C  0.85984579  0.62873338  0.36557207    -0.05900
H2194       H  0.88964035  0.61902300  0.34079570     0.14800
C2195       C  0.93027057  0.50532107  0.34796407    -0.16100
H2196       H  0.90043564  0.51645872  0.37266932     0.09200
H2197       H  0.91161262  0.61096911  0.41739506     0.07000
H2198       H  0.88962064  0.58630181  0.43016398     0.08200
H2199       H  0.87631088  0.62907889  0.42427306     0.07300
H2200       H  0.83320449  0.51295213  0.37105543     0.02100
H2201       H  0.81586357  0.55439669  0.36613159     0.02600
H2202       H  0.79653008  0.52605984  0.37859726     0.06100
H2203       H  0.85941181  0.64913866  0.35715973     0.05100
H2204       H  0.87045963  0.64035516  0.37523841    -0.00700
H2205       H  0.83544105  0.62112363  0.36793858     0.00800
H2206       H  0.92913134  0.48492228  0.35636904     0.04500
H2207       H  0.95521524  0.51173080  0.34631145     0.06400
H2208       H  0.92023378  0.49392408  0.33812568     0.07300
C2209       C  0.06089000  0.39314986  0.23914696    -0.22300
C2210       C  0.06192239  0.42942460  0.23701524     0.09600
C2211       C  0.08391241  0.44346679  0.22746379     0.10000
C2212       C  0.10531579  0.42105451  0.22074603    -0.17300
C2213       C  0.10618484  0.38484178  0.22368527    -0.27700
C2214       C  0.08271205  0.37062631  0.23269661     0.18400
C2215       C  0.04232122  0.45243162  0.24612493     0.12300
C2216       C  0.08581366  0.48235831  0.22489050    -0.12000
H2217       H  0.12267632  0.43243175  0.21379763     0.12600
C2218       C  0.08045757  0.33198950  0.23583542    -0.22900
H2219       H  0.04374055  0.38260192  0.24644027     0.08300
C2220       C  0.01294253  0.46490765  0.24173035     0.04600
C2221       C  0.99590372  0.48710383  0.25080405    -0.20100
C2222       C  0.00713552  0.49629278  0.26436190    -0.12400
C2223       C  0.03647016  0.48337225  0.26877335     0.13300
C2224       C  0.05373200  0.46182922  0.25956130    -0.22800
C2225       C  0.99927820  0.45412070  0.22765449    -0.05900
H2226       H  0.97325001  0.49651012  0.24746463     0.14800
C2227       C  0.05022419  0.49315224  0.28294695    -0.16100
H2228       H  0.07633307  0.45215716  0.26284794     0.09200
H2229       H  0.07960400  0.31698530  0.22573419     0.07000
H2230       H  0.05911471  0.32558277  0.24198305     0.08200
H2231       H  0.10060523  0.32338529  0.24233175     0.07300
H2232       H  0.09062665  0.49611801  0.23504881     0.02100
H2233       H  0.06350901  0.49206665  0.22045108     0.02600
H2234       H  0.10464232  0.48909674  0.21726863     0.06100
H2235       H  0.97594976  0.46592769  0.22591901     0.05100
H2236       H  0.99675627  0.42520672  0.22732276    -0.00700
H2237       H  0.01468475  0.46255901  0.21883428     0.00800
H2238       H  0.03561036  0.48276345  0.29171051     0.04500
H2239       H  0.05173230  0.52206788  0.28373903     0.06400
H2240       H  0.07403672  0.48232263  0.28431789     0.07300
C2241       C  0.07954366  0.63598516  0.32767617    -0.22300
C2242       C  0.10340987  0.61784054  0.32066063     0.09600
C2243       C  0.09598439  0.58817310  0.31242699     0.10000
C2244       C  0.06479064  0.57800825  0.31106791    -0.17300
C2245       C  0.04038472  0.59719148  0.31736268    -0.27700
C2246       C  0.04809502  0.62639581  0.32603625     0.18400
C2247       C  0.13562131  0.63199712  0.32094257     0.12300
C2248       C  0.12078149  0.56803802  0.30453002    -0.12000
H2249       H  0.05945301  0.55552911  0.30451622     0.12600
C2250       C  0.02368459  0.64777267  0.33359846    -0.22900
H2251       H  0.08555458  0.65858356  0.33408208     0.08300
C2252       C  0.14345847  0.66228038  0.31316400     0.04600
C2253       C  0.17465952  0.67270146  0.31235296    -0.20100
C2254       C  0.19871509  0.65328820  0.31882113    -0.12400
C2255       C  0.19059112  0.62336930  0.32700261     0.13300
C2256       C  0.15909236  0.61344833  0.32806929    -0.22800
C2257       C  0.11914287  0.68286742  0.30514764    -0.05900
H2258       H  0.18029568  0.69548744  0.30604858     0.14800
C2259       C  0.21462161  0.60148450  0.33457345    -0.16100
H2260       H  0.15276963  0.59034064  0.33410335     0.09200
H2261       H  0.00881044  0.66157182  0.32574774     0.07000
H2262       H  0.03425528  0.66806777  0.34053858     0.08200
H2263       H  0.00920031  0.63049255  0.34041118     0.07300
H2264       H  0.13755311  0.55647044  0.31216890     0.02100
H2265       H  0.13337456  0.58579733  0.29715677     0.02600
H2266       H  0.11074967  0.54631149  0.29815899     0.06100
H2267       H  0.12951511  0.70507502  0.29916663     0.05100
H2268       H  0.10181277  0.69384296  0.31267242    -0.00700
H2269       H  0.10714020  0.66558321  0.29740339     0.00800
H2270       H  0.20372164  0.58053646  0.34108213     0.04500
H2271       H  0.22857496  0.61824114  0.34180871     0.06400
H2272       H  0.23005938  0.58847155  0.32672524     0.07300
C2273       C  0.10895575  0.16735841  0.20900059    -0.22300
C2274       C  0.12105126  0.14407979  0.21910033     0.09600
C2275       C  0.14374227  0.15543510  0.22886023     0.10000
C2276       C  0.15470131  0.18985432  0.22799066    -0.17300
C2277       C  0.14394691  0.21262741  0.21735995    -0.27700
C2278       C  0.12013337  0.20169075  0.20800548     0.18400
C2279       C  0.11091012  0.10734904  0.21867883     0.12300
C2280       C  0.15722570  0.13084650  0.23977388    -0.12000
H2281       H  0.17314045  0.19834487  0.23506585     0.12600
C2282       C  0.10604032  0.22546828  0.19694507    -0.22900
H2283       H  0.09120102  0.15842213  0.20166003     0.08300
C2284       C  0.08483268  0.09582353  0.22644421     0.04600
C2285       C  0.07543727  0.06091087  0.22517150    -0.20100
C2286       C  0.09115291  0.03777278  0.21606211    -0.12400
C2287       C  0.11770051  0.04913292  0.20853639     0.13300
C2288       C  0.12734268  0.08395363  0.20998244    -0.22800
C2289       C  0.06646278  0.12056778  0.23568546    -0.05900
H2290       H  0.05479388  0.05204382  0.23076632     0.14800
C2291       C  0.13636715  0.02524216  0.19905548    -0.16100
H2292       H  0.14754879  0.09309202  0.20414420     0.09200
H2293       H  0.08046517  0.22692450  0.19858326     0.07000
H2294       H  0.11071782  0.21480060  0.18617486     0.08200
H2295       H  0.11516699  0.25257824  0.19746152     0.07300
H2296       H  0.16851886  0.10834466  0.23436692     0.02100
H2297       H  0.13847873  0.12096847  0.24683331     0.02600
H2298       H  0.17498134  0.14396994  0.24649885     0.06100
H2299       H  0.04654288  0.10721689  0.24092336     0.05100
H2300       H  0.05709785  0.14230493  0.22911511    -0.00700
H2301       H  0.08167425  0.13156357  0.24410346     0.00800
H2302       H  0.13589048  0.03532271  0.18798507     0.04500
H2303       H  0.12754466  0.99796855  0.19902188     0.06400
H2304       H  0.16087634  0.02449994  0.20280012     0.07300
C2305       C  0.98977768  0.79780704  0.25301065    -0.22300
C2306       C  0.00222912  0.76645925  0.24774748     0.09600
C2307       C  0.02054279  0.76645052  0.23535463     0.10000
C2308       C  0.02547231  0.79796556  0.22823819    -0.17300
C2309       C  0.01290164  0.82941854  0.23337074    -0.27700
C2310       C  0.99494725  0.82956274  0.24594827     0.18400
C2311       C  0.99385089  0.73343870  0.25469895     0.12300
C2312       C  0.03508180  0.73328708  0.22974659    -0.12000
H2313       H  0.03973966  0.79819156  0.21871892     0.12600
C2314       C  0.98005148  0.86215987  0.25187748    -0.22900
H2315       H  0.97545180  0.79732782  0.26250944     0.08300
C2316       C  0.00949142  0.72150493  0.26688942     0.04600
C2317       C  0.00033728  0.68978437  0.27301639    -0.20100
C2318       C  0.97562745  0.67004107  0.26729974    -0.12400
C2319       C  0.96018374  0.68222185  0.25490524     0.13300
C2320       C  0.96975611  0.71374276  0.24874823    -0.22800
C2321       C  0.03561323  0.74232378  0.27343030    -0.05900
H2322       H  0.01219082  0.68072737  0.28250333     0.14800
C2323       C  0.93280643  0.66339259  0.24837971    -0.16100
H2324       H  0.95808320  0.72351375  0.23932276     0.09200
H2325       H  0.98949450  0.86747623  0.26264913     0.07000
H2326       H  0.95449988  0.85819328  0.25269894     0.08200
H2327       H  0.98393926  0.88558080  0.24516065     0.07300
H2328       H  0.01666435  0.71410594  0.22697045     0.02100
H2329       H  0.05055256  0.72178860  0.23797248     0.02600
H2330       H  0.04924688  0.73821352  0.22006633     0.06100
H2331       H  0.04541878  0.72907817  0.28294599     0.05100
H2332       H  0.02690388  0.76843718  0.27675163    -0.00700
H2333       H  0.05463299  0.74578104  0.26555583     0.00800
H2334       H  0.92320641  0.67775690  0.23908958     0.04500
H2335       H  0.91379696  0.66079567  0.25631763     0.06400
H2336       H  0.94011591  0.63715293  0.24457204     0.07300
C2337       C  0.18333960  0.79172582  0.26267935    -0.22300
C2338       C  0.18858263  0.79234313  0.24798164     0.09600
C2339       C  0.21273755  0.77174814  0.24222154     0.10000
C2340       C  0.23140697  0.75136955  0.25134376    -0.17300
C2341       C  0.22672665  0.75112536  0.26619311    -0.27700
C2342       C  0.20199549  0.77153226  0.27186346     0.18400
C2343       C  0.16795767  0.81436132  0.23889328     0.12300
C2344       C  0.21885986  0.77146016  0.22645338    -0.12000
H2345       H  0.25023195  0.73607088  0.24683142     0.12600
C2346       C  0.19440089  0.77166759  0.28750091    -0.22900
H2347       H  0.16444521  0.80727934  0.26698761     0.08300
C2348       C  0.13947607  0.80136958  0.23364852     0.04600
C2349       C  0.11961394  0.82372157  0.22600836    -0.20100
C2350       C  0.12706672  0.85918503  0.22366342    -0.12400
C2351       C  0.15623495  0.87184310  0.22848492     0.13300
C2352       C  0.17620136  0.84928750  0.23609939    -0.22800
C2353       C  0.12953198  0.76418787  0.23651033    -0.05900
H2354       H  0.09730450  0.81379814  0.22248495     0.14800
C2355       C  0.16739672  0.90853797  0.22558079    -0.16100
H2356       H  0.19824935  0.85911918  0.24001417     0.09200
H2357       H  0.19051988  0.74446641  0.29120514     0.07000
H2358       H  0.17295419  0.78689546  0.28981372     0.08200
H2359       H  0.21365499  0.78384583  0.29360120     0.07300
H2360       H  0.22457246  0.79832809  0.22278376     0.02100
H2361       H  0.19789405  0.76206831  0.22071284     0.02600
H2362       H  0.23861983  0.75400449  0.22365828     0.06100
H2363       H  0.10649615  0.75828762  0.23171516     0.05100
H2364       H  0.12777310  0.75974444  0.24814867    -0.00700
H2365       H  0.14682495  0.74573268  0.23196266     0.00800
H2366       H  0.17006374  0.92287106  0.23577357     0.04500
H2367       H  0.15154389  0.92349723  0.21855848     0.06400
H2368       H  0.19035345  0.90745496  0.22016154     0.07300
C2369       C  0.10958108  0.08184083  0.04397999    -0.22300
C2370       C  0.12030413  0.10336240  0.03296001     0.09600
C2371       C  0.14131211  0.09016189  0.02281214     0.10000
C2372       C  0.15200762  0.05571902  0.02419212    -0.17300
C2373       C  0.14243099  0.03449818  0.03560344    -0.27700
C2374       C  0.12017043  0.04735158  0.04538433     0.18400
C2375       C  0.10953338  0.13990219  0.03250412     0.12300
C2376       C  0.15305654  0.11273088  0.01081448    -0.12000
H2377       H  0.16927841  0.04598590  0.01676197     0.12600
C2378       C  0.10678208  0.02546542  0.05724616    -0.22900
H2379       H  0.09295807  0.09215278  0.05158982     0.08300
C2380       C  0.08129027  0.14893561  0.02584463     0.04600
C2381       C  0.07056000  0.18342928  0.02681918    -0.20100
C2382       C  0.08715929  0.20859225  0.03456937    -0.12400
C2383       C  0.11600661  0.19987900  0.04081284     0.13300
C2384       C  0.12696431  0.16546506  0.03963827    -0.22800
C2385       C  0.06206164  0.12193843  0.01815577    -0.05900
H2386       H  0.04827872  0.19036449  0.02217350     0.14800
C2387       C  0.13552204  0.22611021  0.04879552    -0.16100
H2388       H  0.14879688  0.15826469  0.04463902     0.09200
H2389       H  0.08098041  0.02551239  0.05647568     0.07000
H2390       H  0.11365400  0.03674560  0.06766048     0.08200
H2391       H  0.11431432  0.99774974  0.05683557     0.07300
H2392       H  0.16535652  0.13590919  0.01518308     0.02100
H2393       H  0.13320406  0.12168141  0.00419441     0.02600
H2394       H  0.16953720  0.09829517  0.00384933     0.06100
H2395       H  0.04051088  0.13347161  0.01360515     0.05100
H2396       H  0.05517882  0.10082802  0.02563949    -0.00700
H2397       H  0.07580853  0.11043002  0.00932475     0.00800
H2398       H  0.13839430  0.21741599  0.05998374     0.04500
H2399       H  0.12517868  0.25271391  0.04883747     0.06400
H2400       H  0.15884310  0.22800231  0.04375014     0.07300
C2401       C  0.26720700  0.78297721  0.01208240    -0.22300
C2402       C  0.24423267  0.76702957  0.00370810     0.09600
C2403       C  0.21541850  0.78384304  0.00158383     0.10000
C2404       C  0.21018022  0.81642227  0.00788354    -0.17300
C2405       C  0.23273159  0.83223038  0.01654967    -0.27700
C2406       C  0.26182356  0.81551424  0.01858598     0.18400
C2407       C  0.25102831  0.73351344  0.99658071     0.12300
C2408       C  0.18993931  0.76702489  0.99292972    -0.12000
H2409       H  0.18768359  0.82888381  0.00657662     0.12600
C2410       C  0.28777462  0.83147861  0.02721724    -0.22900
H2411       H  0.28949392  0.77005716  0.01346892     0.08300
C2412       C  0.26239782  0.73303639  0.98256254     0.04600
C2413       C  0.26572742  0.70096376  0.97558807    -0.20100
C2414       C  0.25826731  0.66914460  0.98232256    -0.12400
C2415       C  0.24700735  0.66969978  0.99649837     0.13300
C2416       C  0.24373762  0.70202175  0.00346865    -0.22800
C2417       C  0.27127286  0.76641574  0.97501766    -0.05900
H2418       H  0.27509833  0.70074416  0.96488532     0.14800
C2419       C  0.23708072  0.63729511  0.00445237    -0.16100
H2420       H  0.23462814  0.70277275  0.01421879     0.09200
H2421       H  0.30901708  0.83365535  0.02053747     0.07000
H2422       H  0.29300520  0.81448263  0.03649447     0.08200
H2423       H  0.28222675  0.85811982  0.03112484     0.07300
H2424       H  0.18343336  0.74150833  0.99774127     0.02100
H2425       H  0.19802962  0.76264198  0.98186884     0.02600
H2426       H  0.16872828  0.78362793  0.99250703     0.06100
H2427       H  0.28006565  0.76131095  0.96410746     0.05100
H2428       H  0.28989386  0.77998751  0.98106596    -0.00700
H2429       H  0.25075439  0.78394723  0.97416330     0.00800
H2430       H  0.25293191  0.63294154  0.01360864     0.04500
H2431       H  0.23670970  0.61346354  0.99778075     0.06400
H2432       H  0.21302108  0.64091408  0.00852514     0.07300
C2433       C  0.11899967  0.90771156  0.10915615    -0.22300
C2434       C  0.12559947  0.93597907  0.11809158     0.09600
C2435       C  0.14687060  0.96175507  0.11363733     0.10000
C2436       C  0.16123713  0.95861516  0.10027714    -0.17300
C2437       C  0.15522556  0.92995588  0.09120459    -0.27700
C2438       C  0.13345631  0.90415725  0.09582098     0.18400
C2439       C  0.11108316  0.93689049  0.13239176     0.12300
C2440       C  0.15464889  0.99236520  0.12308307    -0.12000
H2441       H  0.17763686  0.97862398  0.09703966     0.12600
C2442       C  0.12499666  0.87268743  0.08697684    -0.22900
H2443       H  0.10263313  0.88801865  0.11277246     0.08300
C2444       C  0.08168335  0.95223274  0.13473238     0.04600
C2445       C  0.06834860  0.95071396  0.14836619    -0.20100
C2446       C  0.08354294  0.93374008  0.15970650    -0.12400
C2447       C  0.11349572  0.91906048  0.15732665     0.13300
C2448       C  0.12677104  0.92088665  0.14369554    -0.22800
C2449       C  0.06427677  0.96977763  0.12279375    -0.05900
H2450       H  0.04550967  0.96205047  0.15006248     0.14800
C2451       C  0.13206109  0.90204556  0.16905917    -0.16100
H2452       H  0.14945771  0.90936915  0.14175840     0.09200
H2453       H  0.10738522  0.85588771  0.09229694     0.07000
H2454       H  0.14590532  0.85625811  0.08507639     0.08200
H2455       H  0.11484532  0.88148895  0.07676457     0.07300
H2456       H  0.16478776  0.98278301  0.13321990     0.02100
H2457       H  0.13323731  0.00758334  0.12542143     0.02600
H2458       H  0.17176128  0.01024619  0.11801800     0.06100
H2459       H  0.04157896  0.98048944  0.12641976     0.05100
H2460       H  0.05970593  0.95059080  0.11418226    -0.00700
H2461       H  0.07831315  0.99172509  0.11846659     0.00800
H2462       H  0.12040148  0.87770823  0.17267355     0.04500
H2463       H  0.13461678  0.92048510  0.17810914     0.06400
H2464       H  0.15579475  0.89464184  0.16544946     0.07300
C2465       C  0.02878266  0.80964761  0.99515244    -0.22300
C2466       C  0.04976953  0.79283228  0.00425693     0.09600
C2467       C  0.04922534  0.75599393  0.00533533     0.10000
C2468       C  0.02802502  0.73675422  0.99701174    -0.17300
C2469       C  0.00771860  0.75350426  0.98744199    -0.27700
C2470       C  0.00775129  0.79069955  0.98674865     0.18400
C2471       C  0.07340069  0.81452772  0.01171113     0.12300
C2472       C  0.07165117  0.73702044  0.01492536    -0.12000
H2473       H  0.02793877  0.70842465  0.99766892     0.12600
C2474       C  0.98577319  0.81188093  0.97762730    -0.22900
H2475       H  0.02910574  0.83799146  0.99447013     0.08300
C2476       C  0.09856020  0.82926673  0.00414533     0.04600
C2477       C  0.11935636  0.85149159  0.01121172    -0.20100
C2478       C  0.11622333  0.85881438  0.02576765    -0.12400
C2479       C  0.09126814  0.84373169  0.03343086     0.13300
C2480       C  0.07004326  0.82181903  0.02627719    -0.22800
C2481       C  0.10389332  0.82095683  0.98866319    -0.05900
H2482       H  0.13867185  0.86277108  0.00536633     0.14800
C2483       C  0.08578547  0.85118532  0.04892788    -0.16100
H2484       H  0.05053195  0.81073993  0.03204391     0.09200
H2485       H  0.99933340  0.82697279  0.96966074     0.07000
H2486       H  0.97277126  0.83060317  0.98444262     0.08200
H2487       H  0.96820718  0.79616375  0.97193017     0.07300
H2488       H  0.06789754  0.74524719  0.02611175     0.02100
H2489       H  0.09594026  0.74325026  0.01176055     0.02600
H2490       H  0.06853704  0.70819447  0.01433984     0.06100
H2491       H  0.12532614  0.83366060  0.98452965     0.05100
H2492       H  0.08397561  0.83033558  0.98219506    -0.00700
H2493       H  0.10643756  0.79222628  0.98728395     0.00800
H2494       H  0.06216747  0.86247485  0.05036806     0.04500
H2495       H  0.10274249  0.87016695  0.05326284     0.06400
H2496       H  0.08748208  0.82650084  0.05511390     0.07300
C2497       C  0.15096625  0.60957252  0.52818653    -0.22300
C2498       C  0.12793262  0.61829849  0.53805012     0.09600
C2499       C  0.11472312  0.59216015  0.54676716     0.10000
C2500       C  0.12666464  0.55804335  0.54610756    -0.17300
C2501       C  0.15055483  0.54946246  0.53654887    -0.27700
C2502       C  0.16250627  0.57545767  0.52726491     0.18400
C2503       C  0.11733652  0.65488256  0.53859934     0.12300
C2504       C  0.08781989  0.60010972  0.55654536    -0.12000
H2505       H  0.11766809  0.53807006  0.55319935     0.12600
C2506       C  0.18840551  0.56908174  0.51673984    -0.22900
H2507       H  0.16045632  0.62977983  0.52133453     0.08300
C2508       C  0.12775302  0.67824738  0.54918196     0.04600
C2509       C  0.11564452  0.71231046  0.54948032    -0.20100
C2510       C  0.09423653  0.72362347  0.53917879    -0.12400
C2511       C  0.08498929  0.70044881  0.52818033     0.13300
C2512       C  0.09692402  0.66642168  0.52803616    -0.22800
C2513       C  0.15195251  0.66748045  0.55993912    -0.05900
H2514       H  0.12266048  0.73014714  0.55786228     0.14800
C2515       C  0.06139124  0.70945504  0.51685216    -0.16100
H2516       H  0.08954687  0.64831089  0.51981133     0.09200
H2517       H  0.20847897  0.58629098  0.51928352     0.07000
H2518       H  0.18008467  0.57532490  0.50585313     0.08200
H2519       H  0.19693982  0.54189840  0.51666268     0.07300
H2520       H  0.06783289  0.60997902  0.55022454     0.02100
H2521       H  0.09447306  0.62023664  0.56445958     0.02600
H2522       H  0.08006732  0.57643749  0.56242386     0.06100
H2523       H  0.15771556  0.68922971  0.56731927     0.05100
H2524       H  0.17363018  0.65961664  0.55435561    -0.00700
H2525       H  0.14353250  0.64511579  0.56638440     0.00800
H2526       H  0.07254584  0.70766055  0.50622358     0.04500
H2527       H  0.05113487  0.73579402  0.51790510     0.06400
H2528       H  0.04182797  0.69048013  0.51730295     0.07300
C2529       C  0.22640780  0.97555839  0.50939272    -0.22300
C2530       C  0.19682528  0.96474732  0.50494978     0.09600
C2531       C  0.18524335  0.97663550  0.49171586     0.10000
C2532       C  0.20428413  0.99740655  0.48288215    -0.17300
C2533       C  0.23403358  0.00811881  0.48728830    -0.27700
C2534       C  0.24499705  0.99740460  0.50084505     0.18400
C2535       C  0.17821292  0.94148654  0.51445427     0.12300
C2536       C  0.15247972  0.96830787  0.48711587    -0.12000
H2537       H  0.19569687  0.00589550  0.47260542     0.12600
C2538       C  0.27663718  0.00810824  0.50625381    -0.22900
H2539       H  0.23498255  0.96678849  0.51963158     0.08300
C2540       C  0.17643947  0.90503983  0.51222987     0.04600
C2541       C  0.15648208  0.88466548  0.52076549    -0.20100
C2542       C  0.13815940  0.89965243  0.53165145    -0.12400
C2543       C  0.14223628  0.93602808  0.53457711     0.13300
C2544       C  0.16215020  0.95623208  0.52593107    -0.22800
C2545       C  0.19560021  0.88764887  0.50081017    -0.05900
H2546       H  0.15434374  0.85696788  0.51849763     0.14800
C2547       C  0.12491766  0.95459043  0.54631158    -0.16100
H2548       H  0.16439785  0.98411382  0.52781167     0.09200
H2549       H  0.29491473  0.99996678  0.49861899     0.07000
H2550       H  0.28201866  0.99589660  0.51668723     0.08200
H2551       H  0.27751683  0.03691905  0.50768268     0.07300
H2552       H  0.13580886  0.97918455  0.49497520     0.02100
H2553       H  0.14906765  0.93960257  0.48638772     0.02600
H2554       H  0.14701232  0.97988456  0.47657291     0.06100
H2555       H  0.19176378  0.85890619  0.50055021     0.05100
H2556       H  0.22070603  0.89244416  0.50283558    -0.00700
H2557       H  0.18946715  0.89834111  0.49021405     0.00800
H2558       H  0.13212717  0.98241003  0.54729268     0.04500
H2559       H  0.12978745  0.94167149  0.55665178     0.06400
H2560       H  0.09953940  0.95447175  0.54408972     0.07300
C2561       C  0.92751024  0.66406835  0.48935158    -0.22300
C2562       C  0.91848352  0.69879368  0.49199086     0.09600
C2563       C  0.89022270  0.71116520  0.48622416     0.10000
C2564       C  0.87139832  0.68842833  0.47818512    -0.17300
C2565       C  0.87967034  0.65314985  0.47595631    -0.27700
C2566       C  0.90841201  0.64099657  0.48153156     0.18400
C2567       C  0.93883694  0.72162792  0.50093362     0.12300
C2568       C  0.87945616  0.74810303  0.48892462    -0.12000
H2569       H  0.84928662  0.69791642  0.47419339     0.12600
C2570       C  0.91936159  0.60396649  0.47917051    -0.22900
H2571       H  0.94937922  0.65480372  0.49369223     0.08300
C2572       C  0.93774705  0.72058526  0.51591878     0.04600
C2573       C  0.95797638  0.74195394  0.52390199    -0.20100
C2574       C  0.97957674  0.76465152  0.51733890    -0.12400
C2575       C  0.98011404  0.76591805  0.50218419     0.13300
C2576       C  0.95975228  0.74447486  0.49428098    -0.22800
C2577       C  0.91516564  0.69684200  0.52348467    -0.05900
H2578       H  0.95700192  0.74059409  0.53539940     0.14800
C2579       C  0.00245588  0.78890130  0.49407250    -0.16100
H2580       H  0.96035555  0.74518511  0.48275916     0.09200
H2581       H  0.90388580  0.58526548  0.48477623     0.07000
H2582       H  0.94329713  0.59986464  0.48331760     0.08200
H2583       H  0.91955506  0.59803421  0.46761397     0.07300
H2584       H  0.89671572  0.76689389  0.48457496     0.02100
H2585       H  0.87693496  0.75250755  0.50053656     0.02600
H2586       H  0.85661736  0.75348083  0.48383248     0.06100
H2587       H  0.91704257  0.69929572  0.53521939     0.05100
H2588       H  0.91991903  0.66918021  0.52059372    -0.00700
H2589       H  0.89097275  0.70360807  0.52036127     0.00800
H2590       H  0.02680464  0.78190340  0.49683861     0.04500
H2591       H  0.99793814  0.81683646  0.49658033     0.06400
H2592       H  0.99988532  0.78576614  0.48239054     0.07300
C2593       C  0.83793871  0.86849009  0.57784285    -0.22300
C2594       C  0.86062976  0.89478309  0.57785360     0.09600
C2595       C  0.85151698  0.93009720  0.57690559     0.10000
C2596       C  0.82000433  0.93826742  0.57492284    -0.17300
C2597       C  0.79727089  0.91190589  0.57351274    -0.27700
C2598       C  0.80630850  0.87644997  0.57569531     0.18400
C2599       C  0.89355677  0.88468772  0.57574321     0.12300
C2600       C  0.87531925  0.95907153  0.57723091    -0.12000
H2601       H  0.81341887  0.96548611  0.57367959     0.12600
C2602       C  0.78347323  0.84652103  0.57500552    -0.22900
H2603       H  0.84532856  0.84140226  0.57856608     0.08300
C2604       C  0.91438825  0.87858116  0.58707452     0.04600
C2605       C  0.94554679  0.86977598  0.58401951    -0.20100
C2606       C  0.95581399  0.86667548  0.56989478    -0.12400
C2607       C  0.93479539  0.87297649  0.55860863     0.13300
C2608       C  0.90397708  0.88177031  0.56170273    -0.22800
C2609       C  0.90357648  0.88085045  0.60226158    -0.05900
H2610       H  0.96166622  0.86443900  0.59261467     0.14800
C2611       C  0.94401533  0.87090787  0.54314161    -0.16100
H2612       H  0.88785015  0.88662647  0.55304582     0.09200
H2613       H  0.79492578  0.82088447  0.57694941     0.07000
H2614       H  0.76526651  0.84991755  0.58327235     0.08200
H2615       H  0.77262663  0.84534108  0.56431173     0.07300
H2616       H  0.89183140  0.95609221  0.56822869     0.02100
H2617       H  0.88844626  0.95806218  0.58738319     0.02600
H2618       H  0.86429169  0.98528586  0.57636388     0.06100
H2619       H  0.92276302  0.87516444  0.60983400     0.05100
H2620       H  0.88465205  0.86158008  0.60411216    -0.00700
H2621       H  0.89466852  0.90755578  0.60450333     0.00800
H2622       H  0.93067487  0.84967581  0.53787053     0.04500
H2623       H  0.96916920  0.86586228  0.54150193     0.06400
H2624       H  0.93835807  0.89607074  0.53783379     0.07300
C2625       C  0.12744517  0.59018765  0.70785893    -0.22300
C2626       C  0.11886698  0.60921938  0.71996826     0.09600
C2627       C  0.09955083  0.59395615  0.73034698     0.10000
C2628       C  0.08864486  0.55985364  0.72821802    -0.17300
C2629       C  0.09608138  0.54121237  0.71579821    -0.27700
C2630       C  0.11641729  0.55615469  0.70565008     0.18400
C2631       C  0.12942981  0.64567056  0.72118317     0.12300
C2632       C  0.08939344  0.61415915  0.74330864    -0.12000
H2633       H  0.07282617  0.54841340  0.73591567     0.12600
C2634       C  0.12728614  0.53694809  0.69254995    -0.22900
H2635       H  0.14261922  0.60214474  0.70001799     0.08300
C2636       C  0.15707664  0.65426309  0.72843328     0.04600
C2637       C  0.16721150  0.68905444  0.72841910    -0.20100
C2638       C  0.15098784  0.71480561  0.72080207    -0.12400
C2639       C  0.12302050  0.70631262  0.71374374     0.13300
C2640       C  0.11236326  0.67171940  0.71415340    -0.22800
C2641       C  0.17672920  0.62650597  0.73545393    -0.05900
H2642       H  0.18906613  0.69573343  0.73351652     0.14800
C2643       C  0.10424982  0.73293037  0.70558725    -0.16100
H2644       H  0.09113731  0.66476601  0.70859306     0.09200
H2645       H  0.15313542  0.53655772  0.69231850     0.07000
H2646       H  0.11869880  0.55064998  0.68290419     0.08200
H2647       H  0.11940910  0.50934964  0.69219102     0.07300
H2648       H  0.07650626  0.63800011  0.73999366     0.02100
H2649       H  0.10996210  0.62203761  0.74966717     0.02600
H2650       H  0.07387476  0.59836493  0.75024816     0.06100
H2651       H  0.19795318  0.63778330  0.74040459     0.05100
H2652       H  0.18419444  0.60695144  0.72741289    -0.00700
H2653       H  0.16321451  0.61305695  0.74388325     0.00800
H2654       H  0.10314812  0.72524406  0.69421433     0.04500
H2655       H  0.11412023  0.75970066  0.70626420     0.06400
H2656       H  0.08022788  0.73393094  0.70993698     0.07300
C2657       C  0.08408742  0.80021224  0.62036113    -0.22300
C2658       C  0.11207512  0.81768534  0.62316939     0.09600
C2659       C  0.12609006  0.83772602  0.61232881     0.10000
C2660       C  0.11166521  0.84018287  0.59894906    -0.17300
C2661       C  0.08337050  0.82298773  0.59598321    -0.27700
C2662       C  0.06949667  0.80250463  0.60696104     0.18400
C2663       C  0.12614905  0.81553858  0.63762090     0.12300
C2664       C  0.15619645  0.85688788  0.61496469    -0.12000
H2665       H  0.12267968  0.85578556  0.59074546     0.12600
C2666       C  0.03896648  0.78367513  0.60493892    -0.22900
H2667       H  0.07346460  0.78495713  0.62878544     0.08300
C2668       C  0.11747892  0.83893181  0.64850047     0.04600
C2669       C  0.13344905  0.83826875  0.66154233    -0.20100
C2670       C  0.15814765  0.81471593  0.66411521    -0.12400
C2671       C  0.16587236  0.79018402  0.65325436     0.13300
C2672       C  0.14977361  0.79108323  0.64020120    -0.22800
C2673       C  0.09170977  0.86510202  0.64622234    -0.05900
H2674       H  0.12675650  0.85679941  0.66970709     0.14800
C2675       C  0.19138172  0.76339984  0.65500408    -0.16100
H2676       H  0.15611334  0.77307546  0.63177656     0.09200
H2677       H  0.03118170  0.77042778  0.61483745     0.07000
H2678       H  0.04144831  0.76319705  0.59664896     0.08200
H2679       H  0.02056967  0.80263434  0.60184551     0.07300
H2680       H  0.17473206  0.83790100  0.61783498     0.02100
H2681       H  0.15313017  0.87582850  0.62380623     0.02600
H2682       H  0.16400202  0.87160560  0.60542309     0.06100
H2683       H  0.08788086  0.88167490  0.65576448     0.05100
H2684       H  0.06964959  0.85114400  0.64384455    -0.00700
H2685       H  0.09761612  0.88254510  0.63717102     0.00800
H2686       H  0.18580103  0.74565988  0.66400365     0.04500
H2687       H  0.21397976  0.77670755  0.65689931     0.06400
H2688       H  0.19412002  0.74686139  0.64537273     0.07300
C2689       C  0.06687700  0.96646160  0.76610107    -0.22300
C2690       C  0.05988048  0.96153389  0.75170395     0.09600
C2691       C  0.03414389  0.97876631  0.74563376     0.10000
C2692       C  0.01556710  0.00034178  0.75419912    -0.17300
C2693       C  0.02186897  0.00467986  0.76876980    -0.27700
C2694       C  0.04814124  0.98770337  0.77477082     0.18400
C2695       C  0.08004219  0.93826587  0.74317494     0.12300
C2696       C  0.02615931  0.97403523  0.73016162    -0.12000
H2697       H  0.99538919  0.01301050  0.74956472     0.12600
C2698       C  0.05707597  0.99228074  0.79015558    -0.22900
H2699       H  0.08700203  0.95333227  0.77057565     0.08300
C2700       C  0.10713283  0.95106992  0.73656471     0.04600
C2701       C  0.12625760  0.92784982  0.72906586    -0.20100
C2702       C  0.11944380  0.89181794  0.72830319    -0.12400
C2703       C  0.09190048  0.87912951  0.73481470     0.13300
C2704       C  0.07238583  0.90269676  0.74206902    -0.22800
C2705       C  0.11626020  0.98907246  0.73773061    -0.05900
H2706       H  0.14754562  0.93776041  0.72435537     0.14800
C2707       C  0.08274013  0.84108668  0.73411244    -0.16100
H2708       H  0.05137897  0.89327426  0.74718635     0.09200
H2709       H  0.07951990  0.97919236  0.79264437     0.07000
H2710       H  0.03911038  0.98060829  0.79717622     0.08200
H2711       H  0.05972290  0.02051213  0.79258288     0.07300
H2712       H  0.02138991  0.94598789  0.72797407     0.02100
H2713       H  0.04591109  0.98284450  0.72344129     0.02600
H2714       H  0.00523254  0.98937601  0.72710779     0.06100
H2715       H  0.13827523  0.99470036  0.73196109     0.05100
H2716       H  0.11970386  0.99612323  0.74907237    -0.00700
H2717       H  0.09767486  0.00582947  0.73315753     0.00800
H2718       H  0.05942233  0.83652449  0.73887850     0.04500
H2719       H  0.09963178  0.82482157  0.74010645     0.06400
H2720       H  0.08190726  0.83239588  0.72285541     0.07300
C2721       C  0.31582182  0.71191966  0.74171403    -0.22300
C2722       C  0.30894052  0.70632000  0.75611058     0.09600
C2723       C  0.28270535  0.72267370  0.76219276     0.10000
C2724       C  0.26344443  0.74367059  0.75363887    -0.17300
C2725       C  0.26974792  0.74866185  0.73909694    -0.27700
C2726       C  0.29659811  0.73289774  0.73310781     0.18400
C2727       C  0.33040488  0.68444205  0.76473248     0.12300
C2728       C  0.27496027  0.71768972  0.77767995    -0.12000
H2729       H  0.24295612  0.75567721  0.75827812     0.12600
C2730       C  0.30576641  0.73900040  0.71782679    -0.22900
H2731       H  0.33642948  0.69983220  0.73721844     0.08300
C2732       C  0.32843912  0.64760567  0.76489455     0.04600
C2733       C  0.35070857  0.62810842  0.77250192    -0.20100
C2734       C  0.37529612  0.64454087  0.77984265    -0.12400
C2735       C  0.37671638  0.68181666  0.77976339     0.13300
C2736       C  0.35407756  0.70106897  0.77234495    -0.22800
C2737       C  0.30311581  0.62894035  0.75683353    -0.05900
H2738       H  0.34936754  0.59978400  0.77236266     0.14800
C2739       C  0.40294237  0.70187229  0.78659783    -0.16100
H2740       H  0.35540895  0.72940246  0.77205045     0.09200
H2741       H  0.28819755  0.72743266  0.71058206     0.07000
H2742       H  0.32855165  0.72674483  0.71528307     0.08200
H2743       H  0.30778585  0.76753807  0.71575095     0.07300
H2744       H  0.29438718  0.72753036  0.78435470     0.02100
H2745       H  0.27128640  0.68945469  0.77992519     0.02600
H2746       H  0.25348571  0.73204803  0.78073158     0.06100
H2747       H  0.30478269  0.60008544  0.75807472     0.05100
H2748       H  0.30491545  0.63519048  0.74533364    -0.00700
H2749       H  0.27999038  0.63745588  0.76082039     0.00800
H2750       H  0.42533041  0.69375112  0.78173867     0.04500
H2751       H  0.40321105  0.69707442  0.79823424     0.06400
H2752       H  0.40062948  0.73056808  0.78499665     0.07300
C2753       C  0.34608512  0.83439195  0.67814470    -0.22300
C2754       C  0.35635639  0.86576019  0.68430188     0.09600
C2755       C  0.33480063  0.88771993  0.69129847     0.10000
C2756       C  0.30348514  0.87763039  0.69203298    -0.17300
C2757       C  0.29333626  0.84563446  0.68634191    -0.27700
C2758       C  0.31485785  0.82386579  0.67914948     0.18400
C2759       C  0.38993428  0.87459522  0.68381412     0.12300
C2760       C  0.34501958  0.92089586  0.69862485    -0.12000
H2761       H  0.28711463  0.89396607  0.69778603     0.12600
C2762       C  0.30577555  0.78971721  0.67228657    -0.22900
H2763       H  0.36267558  0.81777318  0.67266553     0.08300
C2764       C  0.41189582  0.85618846  0.69212149     0.04600
C2765       C  0.44300469  0.86729231  0.69218095    -0.20100
C2766       C  0.45246591  0.89687761  0.68445236    -0.12400
C2767       C  0.43071111  0.91456419  0.67575472     0.13300
C2768       C  0.39971453  0.90300975  0.67548024    -0.22800
C2769       C  0.40230819  0.82604596  0.70150771    -0.05900
H2770       H  0.45967572  0.85404998  0.69896639     0.14800
C2771       C  0.43938817  0.94544296  0.66660128    -0.16100
H2772       H  0.38286605  0.91674796  0.66895793     0.09200
H2773       H  0.31793694  0.76780219  0.67770871     0.07000
H2774       H  0.31278876  0.79005839  0.66092291     0.08200
H2775       H  0.28038622  0.78472187  0.67258108     0.07300
H2776       H  0.35471398  0.93956209  0.69074992     0.02100
H2777       H  0.36305607  0.91472093  0.70670385     0.02600
H2778       H  0.32533564  0.93406492  0.70411641     0.06100
H2779       H  0.42226970  0.81557059  0.70769547     0.05100
H2780       H  0.39289005  0.80438690  0.69494376    -0.00700
H2781       H  0.38422107  0.83485514  0.70915147     0.00800
H2782       H  0.43321388  0.93979503  0.65536993     0.04500
H2783       H  0.46461881  0.95146752  0.66689208     0.06400
H2784       H  0.42629787  0.96892338  0.67016557     0.07300
C2785       C  0.36788852  0.41153168  0.95550745    -0.22300
C2786       C  0.35786955  0.38988405  0.96662952     0.09600
C2787       C  0.33729297  0.40300796  0.97699513     0.10000
C2788       C  0.32620657  0.43736354  0.97570735    -0.17300
C2789       C  0.33519318  0.45871402  0.96425035    -0.27700
C2790       C  0.35708636  0.44598965  0.95424452     0.18400
C2791       C  0.36971105  0.35366931  0.96725754     0.12300
C2792       C  0.32630157  0.38037379  0.98911391    -0.12000
H2793       H  0.30930294  0.44703088  0.98332040     0.12600
C2794       C  0.37008803  0.46806629  0.94233548    -0.22900
H2795       H  0.38432924  0.40143229  0.94776837     0.08300
C2796       C  0.35771805  0.32728085  0.95831422     0.04600
C2797       C  0.37185863  0.29420740  0.95827152    -0.20100
C2798       C  0.39732727  0.28701839  0.96712122    -0.12400
C2799       C  0.40851652  0.31309433  0.97648612     0.13300
C2800       C  0.39448898  0.34620604  0.97642971    -0.22800
C2801       C  0.33027666  0.33419091  0.94874760    -0.05900
H2802       H  0.36354752  0.27412542  0.95106415     0.14800
C2803       C  0.43639751  0.30684835  0.98589282    -0.16100
H2804       H  0.40349901  0.36677346  0.98322210     0.09200
H2805       H  0.36276721  0.45703017  0.93194199     0.07000
H2806       H  0.39591728  0.46788964  0.94288812     0.08200
H2807       H  0.36273780  0.49582525  0.94288526     0.07300
H2808       H  0.34648738  0.37205485  0.99565988     0.02100
H2809       H  0.31435367  0.35682450  0.98486429     0.02600
H2810       H  0.30973622  0.39452789  0.99612947     0.06100
H2811       H  0.32357595  0.31049951  0.94262643     0.05100
H2812       H  0.33603960  0.35524971  0.94105359    -0.00700
H2813       H  0.30995592  0.34239689  0.95524479     0.00800
H2814       H  0.45693353  0.30011600  0.97927196     0.04500
H2815       H  0.43151686  0.28513486  0.99341104     0.06400
H2816       H  0.44237470  0.33040276  0.99225201     0.07300
C2817       C  0.55323899  0.29790227  0.99166483    -0.22300
C2818       C  0.54842188  0.29570563  0.00635507     0.09600
C2819       C  0.52628863  0.27209497  0.01179902     0.10000
C2820       C  0.50924786  0.25114006  0.00235069    -0.17300
C2821       C  0.51365676  0.25336134  0.98752481    -0.27700
C2822       C  0.53615948  0.27716343  0.98213557     0.18400
C2823       C  0.56860101  0.31671894  0.01579332     0.12300
C2824       C  0.52067335  0.26912129  0.02756376    -0.12000
H2825       H  0.49191844  0.23337496  0.00660728     0.12600
C2826       C  0.54300829  0.28056681  0.96646841    -0.22900
H2827       H  0.57073708  0.31584741  0.98766473     0.08300
C2828       C  0.59787889  0.30386627  0.02001010     0.04600
C2829       C  0.61778869  0.32557375  0.02775292    -0.20100
C2830       C  0.60961356  0.36023631  0.03112944    -0.12400
C2831       C  0.57982198  0.37282280  0.02727803     0.13300
C2832       C  0.55948613  0.35069269  0.01970695    -0.22800
C2833       C  0.60865367  0.26768550  0.01586947    -0.05900
H2834       H  0.64075596  0.31600024  0.03041102     0.14800
C2835       C  0.56935567  0.40918706  0.03118961    -0.16100
H2836       H  0.53681660  0.36020378  0.01644904     0.09200
H2837       H  0.54917683  0.25461569  0.96198127     0.07000
H2838       H  0.56284488  0.29853346  0.96442153     0.08200
H2839       H  0.52250123  0.29146826  0.96082962     0.07300
H2840       H  0.51294234  0.29479766  0.03181952     0.02100
H2841       H  0.54245556  0.26115081  0.03302242     0.02600
H2842       H  0.50246063  0.24941030  0.03005459     0.06100
H2843       H  0.63233792  0.26189992  0.01999953     0.05100
H2844       H  0.60935842  0.26534557  0.00410949    -0.00700
H2845       H  0.59243074  0.24776980  0.02021629     0.00800
H2846       H  0.54481592  0.41394031  0.02800255     0.04500
H2847       H  0.58403099  0.42897720  0.02575259     0.06400
H2848       H  0.57107528  0.41278436  0.04287807     0.07300
C2849       C  0.59301006  0.13844009  0.94296906    -0.22300
C2850       C  0.60134072  0.12786389  0.92922855     0.09600
C2851       C  0.57892333  0.12877978  0.91824981     0.10000
C2852       C  0.54866422  0.14096089  0.92127643    -0.17300
C2853       C  0.54077475  0.15272661  0.93496009    -0.27700
C2854       C  0.56315306  0.15108270  0.94596956     0.18400
C2855       C  0.63391993  0.11615979  0.92698159     0.12300
C2856       C  0.58708884  0.11756594  0.90337309    -0.12000
H2857       H  0.53130095  0.14183700  0.91292965     0.12600
C2858       C  0.55542661  0.16157641  0.96103692    -0.22900
H2859       H  0.61019585  0.13701080  0.95139083     0.08300
C2860       C  0.65882232  0.14007969  0.92798444     0.04600
C2861       C  0.68934111  0.12741907  0.92916868    -0.20100
C2862       C  0.69571715  0.09128334  0.92961269    -0.12400
C2863       C  0.67089056  0.06742458  0.92720720     0.13300
C2864       C  0.64027911  0.08025938  0.92598553    -0.22800
C2865       C  0.65312780  0.17903102  0.92820737    -0.05900
H2866       H  0.70809778  0.14602812  0.93062633     0.14800
C2867       C  0.67617134  0.02852877  0.92597084    -0.16100
H2868       H  0.62102122  0.06207417  0.92503871     0.09200
H2869       H  0.54960497  0.18982415  0.96149111     0.07000
H2870       H  0.57530356  0.15704592  0.96836221     0.08200
H2871       H  0.53534950  0.14602093  0.96496318     0.07300
H2872       H  0.59414831  0.08962092  0.90333990     0.02100
H2873       H  0.60660890  0.13378951  0.89930922     0.02600
H2874       H  0.56704050  0.12060244  0.89601791     0.06100
H2875       H  0.67525974  0.19403120  0.92859427     0.05100
H2876       H  0.63924096  0.18636845  0.93769389    -0.00700
H2877       H  0.64034020  0.18688830  0.91845690     0.00800
H2878       H  0.68355532  0.01749506  0.93634102     0.04500
H2879       H  0.69417827  0.02323419  0.91777128     0.06400
H2880       H  0.65459941  0.01457518  0.92276304     0.07300
C2881       C  0.29504794  0.06024958  0.01315571    -0.22300
C2882       C  0.29471506  0.05513147  0.99841551     0.09600
C2883       C  0.27588983  0.02860272  0.99258180     0.10000
C2884       C  0.25865363  0.00692314  0.00168161    -0.17300
C2885       C  0.25917340  0.01135548  0.01656071    -0.27700
C2886       C  0.27711278  0.03928088  0.02231542     0.18400
C2887       C  0.31663426  0.07549322  0.98947243     0.12300
C2888       C  0.27364149  0.02346476  0.97672479    -0.12000
H2889       H  0.24436680  0.98654022  0.99704192     0.12600
C2890       C  0.27795272  0.04738667  0.03799407    -0.22900
H2891       H  0.30978820  0.08061881  0.01752075     0.08300
C2892       C  0.31298213  0.11167680  0.98692937     0.04600
C2893       C  0.33622936  0.12985308  0.97940104    -0.20100
C2894       C  0.36294349  0.11259609  0.97430643    -0.12400
C2895       C  0.36592536  0.07597977  0.97658253     0.13300
C2896       C  0.34275952  0.05809553  0.98412514    -0.22800
C2897       C  0.28468396  0.13104203  0.99218038    -0.05900
H2898       H  0.33389893  0.15782579  0.97777610     0.14800
C2899       C  0.39436205  0.05571568  0.97205988    -0.16100
H2900       H  0.34549734  0.03039166  0.98630943     0.09200
H2901       H  0.29413203  0.06923797  0.04046130     0.07000
H2902       H  0.28594574  0.02416885  0.04400809     0.08200
H2903       H  0.25446526  0.05537617  0.04169504     0.07300
H2904       H  0.29668136  0.01617211  0.97229782     0.02100
H2905       H  0.26557215  0.04809706  0.97164649     0.02600
H2906       H  0.25693110  0.00238683  0.97392212     0.06100
H2907       H  0.28514276  0.15902833  0.98897742     0.05100
H2908       H  0.28355602  0.12993568  0.00395563    -0.00700
H2909       H  0.26336004  0.11893338  0.98767648     0.00800
H2910       H  0.39317549  0.02779547  0.97532505     0.04500
H2911       H  0.41520382  0.06725996  0.97714144     0.06400
H2912       H  0.39677678  0.05632035  0.96031818     0.07300
C2913       C  0.37186071  0.42112884  0.79548897    -0.22300
C2914       C  0.38651331  0.39738025  0.78629299     0.09600
C2915       C  0.41060745  0.40890406  0.77725416     0.10000
C2916       C  0.42023648  0.44386826  0.77796805    -0.17300
C2917       C  0.40672992  0.46717994  0.78771032    -0.27700
C2918       C  0.38179801  0.45596332  0.79637978     0.18400
C2919       C  0.37617425  0.36055427  0.78637995     0.12300
C2920       C  0.42712242  0.38400170  0.76737831    -0.12000
H2921       H  0.43971281  0.45250025  0.77151547     0.12600
C2922       C  0.36521298  0.47999362  0.80659432    -0.22900
H2923       H  0.35289373  0.41222489  0.80219253     0.08300
C2924       C  0.38297306  0.33808509  0.79787996     0.04600
C2925       C  0.37013040  0.30437516  0.79807653    -0.20100
C2926       C  0.35103808  0.29262190  0.78695399    -0.12400
C2927       C  0.34545850  0.31468866  0.77512148     0.13300
C2928       C  0.35808595  0.34848493  0.77502942    -0.22800
C2929       C  0.40355853  0.34974297  0.80995532    -0.05900
H2930       H  0.37427497  0.28742443  0.80713430     0.14800
C2931       C  0.32467269  0.30371580  0.76299191    -0.16100
H2932       H  0.35302362  0.36606596  0.76627573     0.09200
H2933       H  0.36838429  0.47032328  0.81763355     0.07000
H2934       H  0.33995795  0.48033138  0.80407372     0.08200
H2935       H  0.37364387  0.50738532  0.80602327     0.07300
H2936       H  0.41044673  0.37320700  0.75951656     0.02100
H2937       H  0.43745980  0.36218890  0.77359758     0.02600
H2938       H  0.44614968  0.39717483  0.76142409     0.06100
H2939       H  0.40711071  0.32852926  0.81787273     0.05100
H2940       H  0.39288274  0.37233473  0.81553745    -0.00700
H2941       H  0.42670112  0.35753062  0.80574521     0.00800
H2942       H  0.30113009  0.29713902  0.76707105     0.04500
H2943       H  0.33478579  0.28063633  0.75751372     0.06400
H2944       H  0.32201766  0.32485045  0.75496818     0.07300
C2945       C  0.27998636  0.03660579  0.75298634    -0.22300
C2946       C  0.25118325  0.02154185  0.75611223     0.09600
C2947       C  0.23064719  0.03820088  0.76562063     0.10000
C2948       C  0.23966418  0.06988760  0.77192250    -0.17300
C2949       C  0.26875269  0.08506639  0.76890258    -0.27700
C2950       C  0.28940772  0.06783691  0.75937906     0.18400
C2951       C  0.24353002  0.98800345  0.74926633     0.12300
C2952       C  0.19936736  0.02252162  0.76906591    -0.12000
H2953       H  0.22408411  0.08271806  0.77935087     0.12600
C2954       C  0.32219636  0.07973555  0.75615551    -0.22900
H2955       H  0.29566803  0.02325028  0.74573922     0.08300
C2956       C  0.23382202  0.98689626  0.73499978     0.04600
C2957       C  0.22893211  0.95442971  0.72855969    -0.20100
C2958       C  0.23358835  0.92295235  0.73603389    -0.12400
C2959       C  0.24398012  0.92415765  0.75031910     0.13300
C2960       C  0.24849928  0.95683889  0.75679331    -0.22800
C2961       C  0.22814187  0.01999256  0.72665672    -0.05900
H2962       H  0.22052906  0.95370489  0.71769787     0.14800
C2963       C  0.25174458  0.89196601  0.75889375    -0.16100
H2964       H  0.25670255  0.95806877  0.76768224     0.09200
H2965       H  0.32428948  0.08584259  0.74465288     0.07000
H2966       H  0.33877512  0.05835732  0.75877434     0.08200
H2967       H  0.32981057  0.10281752  0.76220325     0.07300
H2968       H  0.20252579  0.99632110  0.77396861     0.02100
H2969       H  0.18546108  0.01977698  0.75917775     0.02600
H2970       H  0.18604015  0.03909758  0.77662618     0.06100
H2971       H  0.21996233  0.01435846  0.71569295     0.05100
H2972       H  0.25000281  0.03535296  0.72585710    -0.00700
H2973       H  0.21010218  0.03600717  0.73206410     0.00800
H2974       H  0.27578264  0.89432387  0.76313382     0.04500
H2975       H  0.25106851  0.86750310  0.75260817     0.06400
H2976       H  0.23531018  0.88965537  0.76796095     0.07300
C2977       C  0.35148639  0.22564595  0.86430097    -0.22300
C2978       C  0.36303314  0.19484622  0.87042458     0.09600
C2979       C  0.36086444  0.16308459  0.86288602     0.10000
C2980       C  0.34670876  0.16268280  0.84946005    -0.17300
C2981       C  0.33460281  0.19334629  0.84322096    -0.27700
C2982       C  0.33741216  0.22546599  0.85077870     0.18400
C2983       C  0.37775915  0.19613463  0.88468341     0.12300
C2984       C  0.37386349  0.12959509  0.86895322    -0.12000
H2985       H  0.34487755  0.13797017  0.84387492     0.12600
C2986       C  0.32645007  0.25983888  0.84468574    -0.22900
H2987       H  0.35357148  0.24996143  0.87016037     0.08300
C2988       C  0.40881815  0.20721799  0.88646938     0.04600
C2989       C  0.42285313  0.20439323  0.89990002    -0.20100
C2990       C  0.40667953  0.19030673  0.91157817    -0.12400
C2991       C  0.37498837  0.18065200  0.90987639     0.13300
C2992       C  0.36097964  0.18379398  0.89643775    -0.22800
C2993       C  0.42741599  0.22101647  0.87410000    -0.05900
H2994       H  0.44697551  0.21212468  0.90115500     0.14800
C2995       C  0.35553758  0.16762346  0.92214411    -0.16100
H2996       H  0.33699566  0.17574212  0.89497173     0.09200
H2997       H  0.33230343  0.28220138  0.85174190     0.07000
H2998       H  0.30077058  0.25958944  0.84341607     0.08200
H2999       H  0.33782621  0.26457320  0.83425430     0.07300
H3000       H  0.36175821  0.12303202  0.87903322     0.02100
H3001       H  0.39914272  0.13276351  0.87106310     0.02600
H3002       H  0.37085666  0.10722324  0.86154237     0.06100
H3003       H  0.45152151  0.22804114  0.87727595     0.05100
H3004       H  0.41608236  0.24484919  0.86976112    -0.00700
H3005       H  0.42878570  0.20081165  0.86563955     0.00800
H3006       H  0.33079968  0.16395362  0.91904350     0.04500
H3007       H  0.35622332  0.18687289  0.93098454     0.06400
H3008       H  0.36430715  0.14191501  0.92589263     0.07300
C3009       C  0.18193972  0.35638232  0.73529982    -0.22300
C3010       C  0.17463066  0.32093620  0.73745784     0.09600
C3011       C  0.14750798  0.30699937  0.73119987     0.10000
C3012       C  0.12777731  0.32903620  0.72335094    -0.17300
C3013       C  0.13395269  0.36505560  0.72183885    -0.27700
C3014       C  0.16186463  0.37871013  0.72763752     0.18400
C3015       C  0.19500642  0.29915595  0.74674102     0.12300
C3016       C  0.13903795  0.26898135  0.73303438    -0.12000
H3017       H  0.10641565  0.31833211  0.71903221     0.12600
C3018       C  0.17080975  0.41653294  0.72566922    -0.22900
H3019       H  0.20304932  0.36680331  0.73997599     0.08300
C3020       C  0.22302255  0.28445133  0.74169607     0.04600
C3021       C  0.24153336  0.26429249  0.75092751    -0.20100
C3022       C  0.23283115  0.25849891  0.76517115    -0.12400
C3023       C  0.20428466  0.27266468  0.77010893     0.13300
C3024       C  0.18583085  0.29284154  0.76083096    -0.22800
C3025       C  0.23323333  0.28986163  0.72653669    -0.05900
H3026       H  0.26329189  0.25351834  0.74705040     0.14800
C3027       C  0.19252932  0.26564554  0.78493864    -0.16100
H3028       H  0.16403071  0.30380666  0.76457144     0.09200
H3029       H  0.17107148  0.42305632  0.71416269     0.07000
H3030       H  0.19433346  0.42202936  0.73003381     0.08200
H3031       H  0.15410392  0.43383745  0.73127217     0.07300
H3032       H  0.13553292  0.26302358  0.74447420     0.02100
H3033       H  0.15800902  0.25222998  0.72878857     0.02600
H3034       H  0.11721030  0.26226005  0.72732237     0.06100
H3035       H  0.25553028  0.27625111  0.72424144     0.05100
H3036       H  0.23656666  0.31820928  0.72443892    -0.00700
H3037       H  0.21523056  0.27945081  0.71920005     0.00800
H3038       H  0.20820686  0.27780673  0.79289389     0.04500
H3039       H  0.19126035  0.23697096  0.78677553     0.06400
H3040       H  0.16887948  0.27666774  0.78662711     0.07300
C3041       C  0.16369525  0.12162248  0.82833494    -0.22300
C3042       C  0.13991051  0.14325911  0.82321206     0.09600
C3043       C  0.14735857  0.17601206  0.81727198     0.10000
C3044       C  0.17866534  0.18562017  0.81587208    -0.17300
C3045       C  0.20299719  0.16283671  0.81986524    -0.27700
C3046       C  0.19519604  0.13075252  0.82669876     0.18400
C3047       C  0.10791543  0.12915205  0.82225996     0.12300
C3048       C  0.12230575  0.20007812  0.81173863    -0.12000
H3049       H  0.18399747  0.21050140  0.81092334     0.12600
C3050       C  0.21944789  0.10542050  0.83205252    -0.22900
H3051       H  0.15752816  0.09654105  0.83294406     0.08300
C3052       C  0.09973718  0.10650753  0.81104153     0.04600
C3053       C  0.06888120  0.09539048  0.80975682    -0.20100
C3054       C  0.04575047  0.10647451  0.81931022    -0.12400
C3055       C  0.05398501  0.12903418  0.83063848     0.13300
C3056       C  0.08514657  0.13997643  0.83201384    -0.22800
C3057       C  0.12337732  0.09489054  0.80014569    -0.05900
H3058       H  0.06253612  0.07882590  0.80087230     0.14800
C3059       C  0.03031849  0.14114850  0.84137759    -0.16100
H3060       H  0.09172781  0.15749665  0.84056332     0.09200
H3061       H  0.23284621  0.09442595  0.82300521     0.07000
H3062       H  0.20878849  0.08298470  0.83778206     0.08200
H3063       H  0.23532781  0.11889913  0.83958395     0.07300
H3064       H  0.10633357  0.20740419  0.82052746     0.02100
H3065       H  0.10883947  0.18671789  0.80325060     0.02600
H3066       H  0.13218019  0.22452485  0.80719682     0.06100
H3067       H  0.11283417  0.07775957  0.79190868     0.05100
H3068       H  0.14229030  0.07992682  0.80540793    -0.00700
H3069       H  0.13346242  0.11809806  0.79472589     0.00800
H3070       H  0.04121418  0.15704513  0.84991847     0.04500
H3071       H  0.01897136  0.11814048  0.84640282     0.06400
H3072       H  0.01245503  0.15767332  0.83613079     0.07300
C3073       C  0.40461806  0.05523092  0.77551695    -0.22300
C3074       C  0.42123077  0.06795395  0.76380008     0.09600
C3075       C  0.41985923  0.10396099  0.76055698     0.10000
C3076       C  0.40073208  0.12612580  0.76868220    -0.17300
C3077       C  0.38236823  0.11331959  0.77998093    -0.27700
C3078       C  0.38528766  0.07721570  0.78368249     0.18400
C3079       C  0.43983085  0.04319570  0.75497775     0.12300
C3080       C  0.43846055  0.11903488  0.74842146    -0.12000
H3081       H  0.39919659  0.15347501  0.76572545     0.12600
C3082       C  0.36765425  0.06086064  0.79586556    -0.22900
H3083       H  0.40610669  0.02758289  0.77801934     0.08300
C3084       C  0.46837530  0.02938963  0.75982375     0.04600
C3085       C  0.48625117  0.00831607  0.75070442    -0.20100
C3086       C  0.47656954  0.00092123  0.73672950    -0.12400
C3087       C  0.44724935  0.01359105  0.73208710     0.13300
C3088       C  0.42920878  0.03437218  0.74132097    -0.22800
C3089       C  0.48053388  0.03785818  0.77444569    -0.05900
H3090       H  0.50858916  0.99866573  0.75435983     0.14800
C3091       C  0.43453778  0.00491512  0.71756985    -0.16100
H3092       H  0.40694263  0.04448733  0.73777534     0.09200
H3093       H  0.37433373  0.03306536  0.79753732     0.07000
H3094       H  0.34227749  0.06123532  0.79364599     0.08200
H3095       H  0.37279829  0.07515899  0.80586869     0.07300
H3096       H  0.43089394  0.10716946  0.73822798     0.02100
H3097       H  0.46359380  0.11358638  0.75008394     0.02600
H3098       H  0.43539458  0.14782259  0.74754301     0.06100
H3099       H  0.50365842  0.02575383  0.77639176     0.05100
H3100       H  0.46422648  0.02782766  0.78264090    -0.00700
H3101       H  0.48296434  0.06664375  0.77563943     0.00800
H3102       H  0.43402958  0.97607760  0.71608562     0.04500
H3103       H  0.44914550  0.01707667  0.70919116     0.06400
H3104       H  0.41044423  0.01491330  0.71616771     0.07300
C3105       C  0.65473803  0.64948487  0.22232270    -0.22300
C3106       C  0.62936599  0.64030451  0.21382340     0.09600
C3107       C  0.61518502  0.66570856  0.20504997     0.10000
C3108       C  0.62777951  0.69959212  0.20448234    -0.17300
C3109       C  0.65359131  0.70870455  0.21281045    -0.27700
C3110       C  0.66706918  0.68338413  0.22197457     0.18400
C3111       C  0.61812421  0.60380203  0.21420279     0.12300
C3112       C  0.58680820  0.65698716  0.19633815    -0.12000
H3113       H  0.61760377  0.71899829  0.19746068     0.12600
C3114       C  0.69512898  0.69052252  0.23114023    -0.22900
H3115       H  0.66534102  0.62983160  0.22910821     0.08300
C3116       C  0.62823619  0.57887393  0.20415918     0.04600
C3117       C  0.61481748  0.54539691  0.20418799    -0.20100
C3118       C  0.59197508  0.53624407  0.21420157    -0.12400
C3119       C  0.58286739  0.56096668  0.22467191     0.13300
C3120       C  0.59632667  0.59437450  0.22456196    -0.22800
C3121       C  0.65290909  0.58777936  0.19335664    -0.05900
H3122       H  0.62163481  0.52651750  0.19617024     0.14800
C3123       C  0.55779564  0.55425772  0.23559517    -0.16100
H3124       H  0.58890551  0.61368811  0.23229591     0.09200
H3125       H  0.71447387  0.67283072  0.22800868     0.07000
H3126       H  0.68920895  0.68565218  0.24246221     0.08200
H3127       H  0.70357331  0.71765305  0.23026878     0.07300
H3128       H  0.56766294  0.64843672  0.20347518     0.02100
H3129       H  0.59221773  0.63559522  0.18875440     0.02600
H3130       H  0.57851808  0.67993401  0.19014803     0.06100
H3131       H  0.65821456  0.56519517  0.18632740     0.05100
H3132       H  0.67468860  0.59543611  0.19889834    -0.00700
H3133       H  0.64502162  0.60984848  0.18658253     0.00800
H3134       H  0.56780688  0.55687823  0.24642436     0.04500
H3135       H  0.54696784  0.52814203  0.23480038     0.06400
H3136       H  0.53891013  0.57387234  0.23432253     0.07300
C3137       C  0.58206924  0.94124017  0.22521152    -0.22300
C3138       C  0.56373277  0.92512170  0.23560888     0.09600
C3139       C  0.56486342  0.88843692  0.23711479     0.10000
C3140       C  0.58613312  0.86894447  0.22893239    -0.17300
C3141       C  0.60660704  0.88519957  0.21923148    -0.27700
C3142       C  0.60340479  0.92199763  0.21696069     0.18400
C3143       C  0.54472157  0.94744067  0.24526520     0.12300
C3144       C  0.54429422  0.87002779  0.24771189    -0.12000
H3145       H  0.58772037  0.84096307  0.23066372     0.12600
C3146       C  0.62307987  0.94200116  0.20642608    -0.22900
H3147       H  0.58053898  0.96940372  0.22396903     0.08300
C3148       C  0.55758497  0.96238930  0.25768752     0.04600
C3149       C  0.53880810  0.98325056  0.26656675    -0.20100
C3150       C  0.50755834  0.99010220  0.26318050    -0.12400
C3151       C  0.49465561  0.97478534  0.25073616     0.13300
C3152       C  0.51347967  0.95384929  0.24194128    -0.22800
C3153       C  0.59121050  0.95644589  0.26150992    -0.05900
H3154       H  0.54868412  0.99471269  0.27609078     0.14800
C3155       C  0.46094751  0.97871307  0.24655517    -0.16100
H3156       H  0.50360973  0.94212713  0.23246441     0.09200
H3157       H  0.64796221  0.94111165  0.20957910     0.07000
H3158       H  0.61638147  0.97005908  0.20587786     0.08200
H3159       H  0.62004687  0.93079795  0.19562655     0.07300
H3160       H  0.51948103  0.87502712  0.24509738     0.02100
H3161       H  0.54920856  0.87988391  0.25858375     0.02600
H3162       H  0.54813114  0.84127355  0.24764931     0.06100
H3163       H  0.59754436  0.96965267  0.27162035     0.05100
H3164       H  0.60635328  0.96705370  0.25297650    -0.00700
H3165       H  0.59573439  0.92798904  0.26274043     0.00800
H3166       H  0.45942531  0.99187598  0.23605359     0.04500
H3167       H  0.44702500  0.99394657  0.25426154     0.06400
H3168       H  0.45012856  0.95239631  0.24569255     0.07300
C3169       C  0.77425885  0.72708762  0.25969647    -0.22300
C3170       C  0.79959213  0.70871766  0.25408168     0.09600
C3171       C  0.80694069  0.71240392  0.23952800     0.10000
C3172       C  0.78843262  0.73403559  0.23084665    -0.17300
C3173       C  0.76277796  0.75250654  0.23636835    -0.27700
C3174       C  0.75574632  0.74891898  0.25111341     0.18400
C3175       C  0.81842572  0.68598802  0.26364086     0.12300
C3176       C  0.83446939  0.69358238  0.23319070    -0.12000
H3177       H  0.79400895  0.73640544  0.21965119     0.12600
C3178       C  0.72821418  0.76680687  0.25794297    -0.22900
H3179       H  0.76885291  0.72407679  0.27089000     0.08300
C3180       C  0.84189846  0.70001044  0.27240780     0.04600
C3181       C  0.86137849  0.67729687  0.28008997    -0.20100
C3182       C  0.85829449  0.64061016  0.27915184    -0.12400
C3183       C  0.83307761  0.62678243  0.27111465     0.13300
C3184       C  0.81353091  0.64972212  0.26350042    -0.22800
C3185       C  0.84715550  0.73894928  0.27321771    -0.05900
H3186       H  0.88029570  0.68841840  0.28621737     0.14800
C3187       C  0.82643034  0.58806343  0.27038442    -0.16100
H3188       H  0.79491038  0.63926179  0.25698954     0.09200
H3189       H  0.73121302  0.79564113  0.25748855     0.07000
H3190       H  0.72568130  0.75956047  0.26932344     0.08200
H3191       H  0.70640268  0.75908935  0.25244260     0.07300
H3192       H  0.83135897  0.66486812  0.23431058     0.02100
H3193       H  0.85609839  0.70159557  0.23877739     0.02600
H3194       H  0.83729114  0.69962459  0.22171111     0.06100
H3195       H  0.86678402  0.74562411  0.28040532     0.05100
H3196       H  0.82588750  0.75200314  0.27732981    -0.00700
H3197       H  0.85260611  0.74935364  0.26247687     0.00800
H3198       H  0.82461435  0.57714452  0.28129704     0.04500
H3199       H  0.84503423  0.57437209  0.26439037     0.06400
H3200       H  0.80414619  0.58260059  0.26482003     0.07300
C3201       C  0.89843200  0.91426513  0.17276092    -0.22300
C3202       C  0.88718784  0.88379974  0.17932874     0.09600
C3203       C  0.90801683  0.86197215  0.18684797     0.10000
C3204       C  0.93939538  0.87165158  0.18794336    -0.17300
C3205       C  0.95039240  0.90304510  0.18202721    -0.27700
C3206       C  0.92978767  0.92426536  0.17403401     0.18400
C3207       C  0.85329255  0.87621884  0.17911238     0.12300
C3208       C  0.89691233  0.82941650  0.19437662    -0.12000
H3209       H  0.95510567  0.85554052  0.19416754     0.12600
C3210       C  0.94003715  0.95724719  0.16659058    -0.22900
H3211       H  0.88247572  0.93070771  0.16681741     0.08300
C3212       C  0.83220233  0.89596286  0.18740193     0.04600
C3213       C  0.80109141  0.88508759  0.18840310    -0.20100
C3214       C  0.79075352  0.85455001  0.18159702    -0.12400
C3215       C  0.81144451  0.83579175  0.17272168     0.13300
C3216       C  0.84245600  0.84702572  0.17153236    -0.22800
C3217       C  0.84278555  0.92737625  0.19581345    -0.05900
H3218       H  0.78515857  0.89936960  0.19521949     0.14800
C3219       C  0.80161283  0.80403695  0.16434965    -0.16100
H3220       H  0.85857289  0.83226460  0.16498652     0.09200
H3221       H  0.92774958  0.98009425  0.17125999     0.07000
H3222       H  0.93407710  0.95545526  0.15512563     0.08200
H3223       H  0.96546000  0.96179121  0.16727550     0.07300
H3224       H  0.88756088  0.81040867  0.18655847     0.02100
H3225       H  0.87840965  0.83632273  0.20213509     0.02600
H3226       H  0.91605389  0.81630138  0.20026881     0.06100
H3227       H  0.82349564  0.93888099  0.20215067     0.05100
H3228       H  0.85157030  0.94794756  0.18851524    -0.00700
H3229       H  0.86160655  0.91963666  0.20327092     0.00800
H3230       H  0.80633448  0.80853409  0.15288417     0.04500
H3231       H  0.77647611  0.79808562  0.16542845     0.06400
H3232       H  0.81512946  0.78089564  0.16794886     0.07300
C3233       C  0.65774816  0.60098780  0.03893552    -0.22300
C3234       C  0.62665996  0.60373998  0.03484095     0.09600
C3235       C  0.60966492  0.57375670  0.03087445     0.10000
C3236       C  0.62401803  0.54089630  0.03185008    -0.17300
C3237       C  0.65471010  0.53796917  0.03678600    -0.27700
C3238       C  0.67221701  0.56849421  0.03984082     0.18400
C3239       C  0.61219840  0.63833585  0.03574824     0.12300
C3240       C  0.57634861  0.57650612  0.02602682    -0.12000
H3241       H  0.61101417  0.51744238  0.02923566     0.12600
C3242       C  0.70625566  0.56826490  0.04382366    -0.22900
H3243       H  0.67067039  0.62444772  0.04167280     0.08300
C3244       C  0.60285263  0.65186478  0.04896401     0.04600
C3245       C  0.59090045  0.68573484  0.04959251    -0.20100
C3246       C  0.58761832  0.70638307  0.03726339    -0.12400
C3247       C  0.59736676  0.69246964  0.02394149     0.13300
C3248       C  0.60975708  0.65858060  0.02344943    -0.22800
C3249       C  0.60513064  0.63035409  0.06238449    -0.05900
H3250       H  0.58356345  0.69572912  0.05983426     0.14800
C3251       C  0.59476272  0.71240848  0.01014139    -0.16100
H3252       H  0.61755308  0.64765069  0.01342607     0.09200
H3253       H  0.70912101  0.57891124  0.05472802     0.07000
H3254       H  0.71944087  0.58503062  0.03627876     0.08200
H3255       H  0.71699427  0.54206491  0.04343808     0.07300
H3256       H  0.57501681  0.59309943  0.01635158     0.02100
H3257       H  0.56196039  0.58845961  0.03455017     0.02600
H3258       H  0.56641536  0.55043827  0.02343182     0.06100
H3259       H  0.59605988  0.64473735  0.07177490     0.05100
H3260       H  0.62979560  0.62350126  0.06452895    -0.00700
H3261       H  0.59135351  0.60594194  0.06117823     0.00800
H3262       H  0.60810704  0.73723837  0.01084480     0.04500
H3263       H  0.56993570  0.71786802  0.00771905     0.06400
H3264       H  0.60431809  0.69732571  0.00103549     0.07300
C3265       C  0.47685293  0.96328796  0.01071791    -0.22300
C3266       C  0.50064881  0.98015403  0.00315639     0.09600
C3267       C  0.53016655  0.96437682  0.00190286     0.10000
C3268       C  0.53528029  0.93177964  0.00826695    -0.17300
C3269       C  0.51173911  0.91512341  0.01610180    -0.27700
C3270       C  0.48202533  0.93082535  0.01725760     0.18400
C3271       C  0.49379804  0.01366050  0.99606624     0.12300
C3272       C  0.55641440  0.98234151  0.99415327    -0.12000
H3273       H  0.55820483  0.91995611  0.00767106     0.12600
C3274       C  0.45524004  0.91385522  0.02502275    -0.22900
H3275       H  0.45410249  0.97545447  0.01144413     0.08300
C3276       C  0.48347137  0.01431806  0.98188535     0.04600
C3277       C  0.47753845  0.04654431  0.97541755    -0.20100
C3278       C  0.48061851  0.07819568  0.98293643    -0.12400
C3279       C  0.49123270  0.07747768  0.99718123     0.13300
C3280       C  0.49791530  0.04504272  0.00355259    -0.22800
C3281       C  0.47804635  0.98095874  0.97368395    -0.05900
H3282       H  0.46907083  0.04686092  0.96456496     0.14800
C3283       C  0.49628366  0.11056607  0.00558337    -0.16100
H3284       H  0.50615347  0.04404791  0.01443459     0.09200
H3285       H  0.43515457  0.91106447  0.01768043     0.07000
H3286       H  0.44815637  0.93052266  0.03413599     0.08200
H3287       H  0.46086155  0.88735492  0.02907564     0.07300
H3288       H  0.56140200  0.00793389  0.99925922     0.02100
H3289       H  0.54991555  0.98680751  0.98288250     0.02600
H3290       H  0.57810292  0.96649515  0.99434559     0.06100
H3291       H  0.46966056  0.98624245  0.96272194     0.05100
H3292       H  0.46022292  0.96484355  0.97918977    -0.00700
H3293       H  0.50001300  0.96579288  0.97290502     0.00800
H3294       H  0.47376933  0.12405020  0.00742297     0.04500
H3295       H  0.51234674  0.12820616  0.99972311     0.06400
H3296       H  0.50669689  0.10504968  0.01615827     0.07300
C3297       C  0.60182432  0.78033353  0.11119413    -0.22300
C3298       C  0.61790219  0.80993047  0.11599722     0.09600
C3299       C  0.61786581  0.84060191  0.10768288     0.10000
C3300       C  0.60074562  0.84145955  0.09498070    -0.17300
C3301       C  0.58355619  0.81227354  0.09023371    -0.27700
C3302       C  0.58477398  0.78090945  0.09840470     0.18400
C3303       C  0.63293711  0.80919563  0.13021303     0.12300
C3304       C  0.63566723  0.87260705  0.11232657    -0.12000
H3305       H  0.60047470  0.86547205  0.08884489     0.12600
C3306       C  0.56873509  0.74770879  0.09377397    -0.22900
H3307       H  0.60224035  0.75680489  0.11764384     0.08300
C3308       C  0.61627674  0.81918022  0.14247810     0.04600
C3309       C  0.63162764  0.82045529  0.15563116    -0.20100
C3310       C  0.66330789  0.81175154  0.15690344    -0.12400
C3311       C  0.67992524  0.80121419  0.14458427     0.13300
C3312       C  0.66445123  0.80004472  0.13138562    -0.22800
C3313       C  0.58233192  0.82894586  0.14162701    -0.05900
H3314       H  0.61880138  0.82853233  0.16500399     0.14800
C3315       C  0.71419928  0.79283035  0.14511300    -0.16100
H3316       H  0.67710427  0.79266112  0.12187134     0.09200
H3317       H  0.57380344  0.72556326  0.10107533     0.07000
H3318       H  0.57690328  0.74009034  0.08300693     0.08200
H3319       H  0.54312629  0.75152137  0.09373169     0.07300
H3320       H  0.66078222  0.86613938  0.11328695     0.02100
H3321       H  0.62688928  0.88179758  0.12277928     0.02600
H3322       H  0.63326084  0.89443242  0.10459830     0.06100
H3323       H  0.57277492  0.83619758  0.15219744     0.05100
H3324       H  0.56870640  0.80644113  0.13750591    -0.00700
H3325       H  0.57926366  0.85164599  0.13439007     0.00800
H3326       H  0.71824993  0.76951284  0.15190188     0.04500
H3327       H  0.72724300  0.81553966  0.14944892     0.06400
H3328       H  0.72368124  0.78692871  0.13438867     0.07300
C3329       C  0.65269823  0.89600336  0.00296726    -0.22300
C3330       C  0.66943242  0.92151009  0.01038256     0.09600
C3331       C  0.66526056  0.92478248  0.02522681     0.10000
C3332       C  0.64345149  0.90320522  0.03220861    -0.17300
C3333       C  0.62622416  0.87791126  0.02472069    -0.27700
C3334       C  0.63146688  0.87395054  0.00987191     0.18400
C3335       C  0.68966878  0.94552316  0.00203302     0.12300
C3336       C  0.68389358  0.95086523  0.03367971    -0.12000
H3337       H  0.63955174  0.90638641  0.04351833     0.12600
C3338       C  0.61370991  0.84792293  0.00092280    -0.22900
H3339       H  0.65576808  0.89395591  0.99155374     0.08300
C3340       C  0.71661780  0.93336206  0.99497121     0.04600
C3341       C  0.73304532  0.95616351  0.98597697    -0.20100
C3342       C  0.72353163  0.99100596  0.98400981    -0.12400
C3343       C  0.69660859  0.00325202  0.99112262     0.13300
C3344       C  0.67999605  0.98027904  0.99999989    -0.22800
C3345       C  0.72845884  0.89659142  0.99713394    -0.05900
H3346       H  0.75385832  0.94692055  0.98063946     0.14800
C3347       C  0.68401852  0.03978429  0.98919899    -0.16100
H3348       H  0.65884619  0.98932876  0.00512201     0.09200
H3349       H  0.61916897  0.82084479  0.00440535     0.07000
H3350       H  0.61997940  0.84979560  0.98948885     0.08200
H3351       H  0.58832340  0.85287147  0.00181537     0.07300
H3352       H  0.67867987  0.97785242  0.03003245     0.02100
H3353       H  0.70912956  0.94556094  0.03227001     0.02600
H3354       H  0.67845804  0.94933154  0.04520909     0.06100
H3355       H  0.75028371  0.89179996  0.99111941     0.05100
H3356       H  0.71101518  0.87729593  0.99339864    -0.00700
H3357       H  0.73324320  0.89212469  0.00859257     0.00800
H3358       H  0.65966662  0.03835992  0.98527471     0.04500
H3359       H  0.69744696  0.05551249  0.98143264     0.06400
H3360       H  0.68419652  0.05364654  0.99957209     0.07300
C3361       C  0.38725945  0.66303999  0.99801943    -0.22300
C3362       C  0.41247217  0.67698656  0.99056779     0.09600
C3363       C  0.41678884  0.66799571  0.97613373     0.10000
C3364       C  0.39490000  0.64612771  0.96933048    -0.17300
C3365       C  0.36957068  0.63193035  0.97684208    -0.27700
C3366       C  0.36604191  0.64032122  0.99150273     0.18400
C3367       C  0.43438117  0.69990999  0.99847802     0.12300
C3368       C  0.44451341  0.68137238  0.96799812    -0.12000
H3369       H  0.39764521  0.63992230  0.95815793     0.12600
C3370       C  0.33991899  0.62697639  0.00075859    -0.22900
H3371       H  0.38422365  0.66981408  0.00913647     0.08300
C3372       C  0.42973047  0.73640409  0.99954923     0.04600
C3373       C  0.44982957  0.75649172  0.00810359    -0.20100
C3374       C  0.47402100  0.74078327  0.01589237    -0.12400
C3375       C  0.47876770  0.70408503  0.01464327     0.13300
C3376       C  0.45869397  0.68424558  0.00606343    -0.22800
C3377       C  0.40321481  0.75395326  0.99187158    -0.05900
H3378       H  0.44628490  0.78452053  0.00893728     0.14800
C3379       C  0.50522339  0.68476613  0.02170653    -0.16100
H3380       H  0.46204313  0.65616377  0.00527192     0.09200
H3381       H  0.32489950  0.64922027  0.00405881     0.07000
H3382       H  0.34980707  0.61450473  0.01042252     0.08200
H3383       H  0.32519823  0.60715128  0.99562431     0.07300
H3384       H  0.46626962  0.67230519  0.97320639     0.02100
H3385       H  0.44425932  0.71041532  0.96779496     0.02600
H3386       H  0.44456786  0.67178120  0.95685229     0.06100
H3387       H  0.40279839  0.78261301  0.99385212     0.05100
H3388       H  0.38073016  0.74282728  0.99555286    -0.00700
H3389       H  0.40551326  0.74967276  0.98024934     0.00800
H3390       H  0.49572171  0.66523296  0.02930005     0.04500
H3391       H  0.52145759  0.70196884  0.02749382     0.06400
H3392       H  0.51910959  0.67081848  0.01351001     0.07300
C3393       C  0.34801315  0.91793120  0.06590619    -0.22300
C3394       C  0.35386225  0.88417517  0.07088939     0.09600
C3395       C  0.32890175  0.86273218  0.07516123     0.10000
C3396       C  0.29826037  0.87509033  0.07368487    -0.17300
C3397       C  0.29190139  0.90827459  0.06777374    -0.27700
C3398       C  0.31753299  0.93029636  0.06413163     0.18400
C3399       C  0.38592034  0.87050467  0.06956036     0.12300
C3400       C  0.33465901  0.82644869  0.08085527    -0.12000
H3401       H  0.27918133  0.85803270  0.07665253     0.12600
C3402       C  0.31363283  0.96611825  0.05764300    -0.22900
H3403       H  0.36756149  0.93397449  0.06259900     0.08300
C3404       C  0.39570197  0.85473045  0.05677227     0.04600
C3405       C  0.42655738  0.84362499  0.05545523    -0.20100
C3406       C  0.44809716  0.84824916  0.06652096    -0.12400
C3407       C  0.43833353  0.86402688  0.07938341     0.13300
C3408       C  0.40722715  0.87514946  0.08070720    -0.22800
C3409       C  0.37369366  0.85008683  0.04441301    -0.05900
H3410       H  0.43412663  0.83173561  0.04556739     0.14800
C3411       C  0.45955343  0.86852697  0.09199552    -0.16100
H3412       H  0.39952404  0.88746510  0.09047848     0.09200
H3413       H  0.30152367  0.96383471  0.04725876     0.07000
H3414       H  0.33633507  0.97910249  0.05558141     0.08200
H3415       H  0.30036131  0.98328347  0.06498929     0.07300
H3416       H  0.34941868  0.82801416  0.09052172     0.02100
H3417       H  0.34674170  0.81033812  0.07273029     0.02600
H3418       H  0.31259224  0.81304250  0.08373034     0.06100
H3419       H  0.38525924  0.83731721  0.03520840     0.05100
H3420       H  0.36492885  0.87598502  0.04085105    -0.00700
H3421       H  0.35368329  0.83351762  0.04764286     0.00800
H3422       H  0.46192499  0.89680125  0.09449936     0.04500
H3423       H  0.48309755  0.85752145  0.09025232     0.06400
H3424       H  0.44936588  0.85493943  0.10134368     0.07300
C3425       C  0.83879275  0.34776413  0.27409173    -0.22300
C3426       C  0.86216255  0.35771370  0.28363384     0.09600
C3427       C  0.87484538  0.33294946  0.29314227     0.10000
C3428       C  0.86267684  0.29898206  0.29337645    -0.17300
C3429       C  0.83847525  0.28928499  0.28420221    -0.27700
C3430       C  0.82670862  0.31370916  0.27424372     0.18400
C3431       C  0.87189533  0.39467223  0.28406276     0.12300
C3432       C  0.90098404  0.34243868  0.30310846    -0.12000
H3433       H  0.87144934  0.28015226  0.30101786     0.12600
C3434       C  0.80011173  0.30478249  0.26442771    -0.22900
H3435       H  0.82924590  0.36710451  0.26686908     0.08300
C3436       C  0.89154174  0.40895449  0.27357104     0.04600
C3437       C  0.90184851  0.44350085  0.27506188    -0.20100
C3438       C  0.89355391  0.46359229  0.28698299    -0.12400
C3439       C  0.87299066  0.44962475  0.29724201     0.13300
C3440       C  0.86202271  0.41535644  0.29552143    -0.22800
C3441       C  0.90269083  0.38732707  0.26117798    -0.05900
H3442       H  0.91787857  0.45421743  0.26728586     0.14800
C3443       C  0.86245153  0.47066345  0.30992047    -0.16100
H3444       H  0.84648736  0.40415124  0.30338490     0.09200
H3445       H  0.80692550  0.28302296  0.25725923     0.07000
H3446       H  0.79334878  0.32740751  0.25767831     0.08200
H3447       H  0.77942863  0.29697865  0.27075360     0.07300
H3448       H  0.89332956  0.36325363  0.31055218     0.02100
H3449       H  0.92127573  0.35194314  0.29689048     0.02600
H3450       H  0.90863198  0.31961484  0.30954245     0.06100
H3451       H  0.91868530  0.40235930  0.25418252     0.05100
H3452       H  0.88253708  0.37875915  0.25467601    -0.00700
H3453       H  0.91537377  0.36394023  0.26513725     0.00800
H3454       H  0.84490961  0.45626602  0.31633597     0.04500
H3455       H  0.85173655  0.49556431  0.30628915     0.06400
H3456       H  0.88246711  0.47645233  0.31698066     0.07300
C3457       C  0.75500784  0.01339057  0.26814940    -0.22300
C3458       C  0.75097059  0.01501655  0.25344928     0.09600
C3459       C  0.75274866  0.04743241  0.24635784     0.10000
C3460       C  0.75958688  0.07768889  0.25419542    -0.17300
C3461       C  0.76383532  0.07637860  0.26902658    -0.27700
C3462       C  0.76123962  0.04352433  0.27610955     0.18400
C3463       C  0.74198560  0.98269402  0.24600506     0.12300
C3464       C  0.74666759  0.05018710  0.23061505    -0.12000
H3465       H  0.76133995  0.10254664  0.24869809     0.12600
C3466       C  0.76537922  0.03928875  0.29196153    -0.22900
H3467       H  0.75291574  0.98825139  0.27342754     0.08300
C3468       C  0.76386576  0.96158847  0.23883298     0.04600
C3469       C  0.75349362  0.93144672  0.23176938    -0.20100
C3470       C  0.72205968  0.92145461  0.23226428    -0.12400
C3471       C  0.70043092  0.94209600  0.23995167     0.13300
C3472       C  0.71077322  0.97252660  0.24667728    -0.22800
C3473       C  0.79805215  0.97042254  0.23890960    -0.05900
H3474       H  0.76996906  0.91544385  0.22592176     0.14800
C3475       C  0.66616238  0.93395799  0.24095850    -0.16100
H3476       H  0.69425931  0.98872899  0.25241762     0.09200
H3477       H  0.76347592  0.01149853  0.29533712     0.07000
H3478       H  0.74698704  0.05403111  0.29770256     0.08200
H3479       H  0.78874899  0.04869683  0.29521053     0.07300
H3480       H  0.72277646  0.04078539  0.22823033     0.02100
H3481       H  0.76365581  0.03406223  0.22462484     0.02600
H3482       H  0.74866459  0.07760465  0.22678811     0.06100
H3483       H  0.81194059  0.95081350  0.23291811     0.05100
H3484       H  0.80668904  0.97096550  0.25003268    -0.00700
H3485       H  0.80200939  0.99640986  0.23398561     0.00800
H3486       H  0.65964044  0.93010593  0.25227460     0.04500
H3487       H  0.65922885  0.91031404  0.23504175     0.06400
H3488       H  0.65258498  0.95626806  0.23661765     0.07300
C3489       C  0.67285319  0.34505000  0.23404040    -0.22300
C3490       C  0.66247581  0.31196917  0.23850726     0.09600
C3491       C  0.63275623  0.30019490  0.23432253     0.10000
C3492       C  0.61382414  0.32203908  0.22599786    -0.17300
C3493       C  0.62346076  0.35588060  0.22202785    -0.27700
C3494       C  0.65361756  0.36731303  0.22593459     0.18400
C3495       C  0.68286362  0.29025060  0.24775719     0.12300
C3496       C  0.62074405  0.26488210  0.23891096    -0.12000
H3497       H  0.59061899  0.31326226  0.22319829     0.12600
C3498       C  0.66577746  0.40259905  0.22143311    -0.22900
H3499       H  0.69588335  0.35371640  0.23716482     0.08300
C3500       C  0.70585598  0.26814183  0.24198564     0.04600
C3501       C  0.72468563  0.24821521  0.25113213    -0.20100
C3502       C  0.72136899  0.24993212  0.26602650    -0.12400
C3503       C  0.69781784  0.27191187  0.27177753     0.13300
C3504       C  0.67888022  0.29165600  0.26254110    -0.22800
C3505       C  0.71054768  0.26568362  0.22614723    -0.05900
H3506       H  0.74265115  0.23177960  0.24657029     0.14800
C3507       C  0.69191223  0.27436728  0.28754637    -0.16100
H3508       H  0.66090153  0.30849584  0.26685959     0.09200
H3509       H  0.69042033  0.40633546  0.22467390     0.07000
H3510       H  0.65190422  0.42376815  0.22642861     0.08200
H3511       H  0.66450804  0.40502024  0.20968212     0.07300
H3512       H  0.61966895  0.26360606  0.25069347     0.02100
H3513       H  0.63648628  0.24399834  0.23495070     0.02600
H3514       H  0.59700366  0.25971845  0.23471805     0.06100
H3515       H  0.72944115  0.24705502  0.22335649     0.05100
H3516       H  0.71683887  0.29179088  0.22182717    -0.00700
H3517       H  0.68875607  0.25654150  0.22100580     0.00800
H3518       H  0.67124089  0.29080331  0.28996643     0.04500
H3519       H  0.71216495  0.28651801  0.29294387     0.06400
H3520       H  0.68759208  0.24785774  0.29196445     0.07300
C3521       C  0.66417457  0.11066245  0.33012208    -0.22300
C3522       C  0.63952365  0.12735568  0.32309480     0.09600
C3523       C  0.64532536  0.15772794  0.31504108     0.10000
C3524       C  0.67590414  0.16977548  0.31357987    -0.17300
C3525       C  0.70123199  0.15192980  0.31975845    -0.27700
C3526       C  0.69505911  0.12247461  0.32855893     0.18400
C3527       C  0.60847421  0.11056521  0.32260790     0.12300
C3528       C  0.61934764  0.17653321  0.30741078    -0.12000
H3529       H  0.68005860  0.19239442  0.30689089     0.12600
C3530       C  0.72056557  0.10314566  0.33627188    -0.22900
H3531       H  0.65934043  0.08738717  0.33634223     0.08300
C3532       C  0.60190993  0.08493656  0.31226190     0.04600
C3533       C  0.57107979  0.07417479  0.31018401    -0.20100
C3534       C  0.54649727  0.08836776  0.31822206    -0.12400
C3535       C  0.55359096  0.11177679  0.32948467     0.13300
C3536       C  0.58446579  0.12316719  0.33130605    -0.22800
C3537       C  0.62729177  0.07015222  0.30294854    -0.05900
H3538       H  0.56602915  0.05581474  0.30170972     0.14800
C3539       C  0.52966715  0.12465391  0.33998648    -0.16100
H3540       H  0.58978879  0.14241313  0.33941625     0.09200
H3541       H  0.73607637  0.08982330  0.32854577     0.07000
H3542       H  0.71104644  0.08268045  0.34345335     0.08200
H3543       H  0.73420877  0.12174848  0.34286063     0.07300
H3544       H  0.60183090  0.18579278  0.31523268     0.02100
H3545       H  0.60795814  0.15854181  0.29974022     0.02600
H3546       H  0.62796821  0.19963366  0.30140891     0.06100
H3547       H  0.61811323  0.05059099  0.29528823     0.05100
H3548       H  0.64508930  0.05702994  0.30964668    -0.00700
H3549       H  0.63849781  0.09151727  0.29678992     0.00800
H3550       H  0.53807258  0.11957330  0.35096212     0.04500
H3551       H  0.50695479  0.11118368  0.33903697     0.06400
H3552       H  0.52622117  0.15326372  0.33862998     0.07300
C3553       C  0.90715685  0.06126015  0.27232591    -0.22300
C3554       C  0.92303754  0.07610886  0.26083194     0.09600
C3555       C  0.91873976  0.11189047  0.25773199     0.10000
C3556       C  0.89732892  0.13153891  0.26577795    -0.17300
C3557       C  0.87972476  0.11628030  0.27685550    -0.27700
C3558       C  0.88573401  0.08063283  0.28042247     0.18400
C3559       C  0.94280066  0.05292750  0.25187531     0.12300
C3560       C  0.93657305  0.12924185  0.24586785    -0.12000
H3561       H  0.89353862  0.15872789  0.26298099     0.12600
C3562       C  0.86919683  0.06187678  0.29234698    -0.22900
H3563       H  0.91082457  0.03376500  0.27466304     0.08300
C3564       C  0.97128895  0.03932784  0.25689993     0.04600
C3565       C  0.98800314  0.01554146  0.24844707    -0.20100
C3566       C  0.97707031  0.00506245  0.23501963    -0.12400
C3567       C  0.94828692  0.01845784  0.23004515     0.13300
C3568       C  0.93166563  0.04235505  0.23851869    -0.22800
C3569       C  0.98443348  0.05054538  0.27103053    -0.05900
H3570       H  0.01022342  0.00574650  0.25219426     0.14800
C3571       C  0.93371918  0.00721688  0.21619379    -0.16100
H3572       H  0.90943448  0.05224557  0.23481413     0.09200
H3573       H  0.87798825  0.03476508  0.29381647     0.07000
H3574       H  0.84398167  0.05986343  0.28995281     0.08200
H3575       H  0.87293564  0.07603249  0.30251110     0.07300
H3576       H  0.93074685  0.11673899  0.23556082     0.02100
H3577       H  0.96195930  0.12663393  0.24783764     0.02600
H3578       H  0.93096990  0.15755606  0.24502674     0.06100
H3579       H  0.00741884  0.03827012  0.27313642     0.05100
H3580       H  0.96844114  0.04282181  0.27974736    -0.00700
H3581       H  0.98750667  0.07940601  0.27114621     0.00800
H3582       H  0.90994563  0.99695087  0.21824790     0.04500
H3583       H  0.94681793  0.98616344  0.21075146     0.06400
H3584       H  0.93196366  0.03006970  0.20894009     0.07300
C3585       C  0.87718630  0.34966236  0.45470049    -0.22300
C3586       C  0.89130008  0.37065843  0.46510088     0.09600
C3587       C  0.91305855  0.35591424  0.47457516     0.10000
C3588       C  0.92046142  0.32036952  0.47332762    -0.17300
C3589       C  0.90722723  0.29959034  0.46260344    -0.27700
C3590       C  0.88527213  0.31431246  0.45316918     0.18400
C3591       C  0.88186482  0.40769853  0.46612086     0.12300
C3592       C  0.92932305  0.37789380  0.48560826    -0.12000
H3593       H  0.93785686  0.30911277  0.48033254     0.12600
C3594       C  0.87007739  0.29282923  0.44166313    -0.22900
H3595       H  0.86005884  0.36119826  0.44764178     0.08300
C3596       C  0.88976593  0.43220445  0.45548967     0.04600
C3597       C  0.87601831  0.46546112  0.45577810    -0.20100
C3598       C  0.85511047  0.47478445  0.46660004    -0.12400
C3599       C  0.84916298  0.45104381  0.47784137     0.13300
C3600       C  0.86248360  0.41763179  0.47737378    -0.22800
C3601       C  0.91237761  0.42314849  0.44380437    -0.05900
H3602       H  0.88075677  0.48387532  0.44726872     0.14800
C3603       C  0.82730747  0.45979881  0.48986817    -0.16100
H3604       H  0.85669960  0.39856997  0.48550432     0.09200
H3605       H  0.88774163  0.28385687  0.43386723     0.07000
H3606       H  0.85233197  0.30819088  0.43575307     0.08200
H3607       H  0.85835342  0.26975818  0.44645200     0.07300
H3608       H  0.91212094  0.38877934  0.49321303     0.02100
H3609       H  0.94189414  0.39972619  0.48033009     0.02600
H3610       H  0.94653288  0.36236367  0.49177272     0.06100
H3611       H  0.91658843  0.44575787  0.43662509     0.05100
H3612       H  0.90316905  0.40129080  0.43728765    -0.00700
H3613       H  0.93501544  0.41527805  0.44852650     0.00800
H3614       H  0.80388511  0.46615140  0.48560537     0.04500
H3615       H  0.83655367  0.48243341  0.49593042     0.06400
H3616       H  0.82468211  0.43762932  0.49742050     0.07300
C3617       C  0.98938255  0.02718011  0.48541689    -0.22300
C3618       C  0.99726832  0.03106917  0.49971956     0.09600
C3619       C  0.99861802  0.06471041  0.50584920     0.10000
C3620       C  0.99100757  0.09394797  0.49749295    -0.17300
C3621       C  0.98326996  0.09019841  0.48305580    -0.27700
C3622       C  0.98255180  0.05621924  0.47693265     0.18400
C3623       C  0.00603099  0.99931040  0.50763265     0.12300
C3624       C  0.00880837  0.06975473  0.52103562    -0.12000
H3625       H  0.99154776  0.11985853  0.50218154     0.12600
C3626       C  0.97382585  0.04987710  0.46159985    -0.22900
H3627       H  0.98885517  0.00111664  0.48085445     0.08300
C3628       C  0.98440924  0.98072457  0.51601014     0.04600
C3629       C  0.99393587  0.94980957  0.52277941    -0.20100
C3630       C  0.02410222  0.93649838  0.52085226    -0.12400
C3631       C  0.04554083  0.95498786  0.51217730     0.13300
C3632       C  0.03611540  0.98618367  0.50570486    -0.22800
C3633       C  0.95121427  0.99298272  0.51749723    -0.05900
H3634       H  0.97773074  0.93577014  0.52949883     0.14800
C3635       C  0.07881256  0.94377196  0.50982621    -0.16100
H3636       H  0.05240238  0.00047434  0.49906411     0.09200
H3637       H  0.97278927  0.02151404  0.45904384     0.07000
H3638       H  0.99149355  0.06172213  0.45445539     0.08200
H3639       H  0.95053661  0.06119310  0.45935577     0.07300
H3640       H  0.03275031  0.05934466  0.52243451     0.02100
H3641       H  0.99286182  0.05572784  0.52834872     0.02600
H3642       H  0.00891028  0.09784637  0.52407902     0.06100
H3643       H  0.93732725  0.97502842  0.52429128     0.05100
H3644       H  0.94007353  0.99411477  0.50685705    -0.00700
H3645       H  0.95050096  0.01939221  0.52236461     0.00800
H3646       H  0.08288154  0.93938519  0.49830424     0.04500
H3647       H  0.08520017  0.91959128  0.51551087     0.06400
H3648       H  0.09469172  0.96476706  0.51356256     0.07300
C3649       C  0.86610474  0.18320354  0.39411231    -0.22300
C3650       C  0.88247640  0.19312822  0.38186653     0.09600
C3651       C  0.91395071  0.20332447  0.38305961     0.10000
C3652       C  0.92858106  0.20248327  0.39644073    -0.17300
C3653       C  0.91261737  0.19119439  0.40866915    -0.27700
C3654       C  0.88069625  0.18201642  0.40748919     0.18400
C3655       C  0.86650415  0.19116818  0.36784042     0.12300
C3656       C  0.93227283  0.21421158  0.37014144    -0.12000
H3657       H  0.95293520  0.20968586  0.39727778     0.12600
C3658       C  0.86158290  0.17175557  0.42028821    -0.22900
H3659       H  0.84182628  0.17577898  0.39312657     0.08300
C3660       C  0.86224707  0.15886327  0.36086070     0.04600
C3661       C  0.84665674  0.15793519  0.34774453    -0.20100
C3662       C  0.83499512  0.18856045  0.34130655    -0.12400
C3663       C  0.83978873  0.22113447  0.34828001     0.13300
C3664       C  0.85540539  0.22190072  0.36145703    -0.22800
C3665       C  0.87446273  0.12532630  0.36720145    -0.05900
H3666       H  0.84325976  0.13288566  0.34257228     0.14800
C3667       C  0.82938541  0.25533059  0.34183755    -0.16100
H3668       H  0.85898072  0.24664106  0.36685856     0.09200
H3669       H  0.87013212  0.14666404  0.42476101     0.07000
H3670       H  0.83666218  0.16802846  0.41752044     0.08200
H3671       H  0.86295904  0.19259559  0.42849491     0.07300
H3672       H  0.92140021  0.23762884  0.36522283     0.02100
H3673       H  0.93261374  0.19252473  0.36228552     0.02600
H3674       H  0.95672719  0.22085011  0.37286908     0.06100
H3675       H  0.86972488  0.10245090  0.36024579     0.05100
H3676       H  0.86318880  0.12042870  0.37763269    -0.00700
H3677       H  0.90004094  0.12731036  0.36871224     0.00800
H3678       H  0.80360903  0.25618019  0.34117022     0.04500
H3679       H  0.83965380  0.25838902  0.33106874     0.06400
H3680       H  0.83687366  0.27809192  0.34833796     0.07300
C3681       C  0.06235852  0.30104105  0.48912261    -0.22300
C3682       C  0.05257299  0.30652039  0.50318303     0.09600
C3683       C  0.02476574  0.29094395  0.50797531     0.10000
C3684       C  0.00742590  0.26996148  0.49861834    -0.17300
C3685       C  0.01703194  0.26436031  0.48448063    -0.27700
C3686       C  0.04491409  0.28027156  0.47967642     0.18400
C3687       C  0.07245617  0.32780139  0.51278641     0.12300
C3688       C  0.01356676  0.29628653  0.52299440    -0.12000
H3689       H  0.98594395  0.25820346  0.50233330     0.12600
C3690       C  0.05701624  0.27457114  0.46482274    -0.22900
H3691       H  0.08391165  0.31294613  0.48557412     0.08300
C3692       C  0.09873528  0.31315651  0.51948765     0.04600
C3693       C  0.11855660  0.33478505  0.52743610    -0.20100
C3694       C  0.11344728  0.37113772  0.52847721    -0.12400
C3695       C  0.08583167  0.38532228  0.52252222     0.13300
C3696       C  0.06564782  0.36336758  0.51478813    -0.22800
C3697       C  0.10634084  0.27483714  0.51790854    -0.05900
H3698       H  0.13942817  0.32347415  0.53200309     0.14800
C3699       C  0.07725474  0.42331999  0.52433078    -0.16100
H3700       H  0.04495546  0.37419884  0.50987011     0.09200
H3701       H  0.08003384  0.28721506  0.46320546     0.07000
H3702       H  0.04067966  0.28596309  0.45694729     0.08200
H3703       H  0.05977599  0.24612160  0.46281645     0.07300
H3704       H  0.00947885  0.32457548  0.52494929     0.02100
H3705       H  0.03135544  0.28652538  0.53058585     0.02600
H3706       H  0.99145454  0.28209970  0.52506512     0.06100
H3707       H  0.12766945  0.26754917  0.52389423     0.05100
H3708       H  0.11028907  0.26850222  0.50653256    -0.00700
H3709       H  0.08673072  0.25880478  0.52200279     0.00800
H3710       H  0.05358701  0.42889673  0.52014431     0.04500
H3711       H  0.09375835  0.44028957  0.51844356     0.06400
H3712       H  0.07747625  0.43025455  0.53579586     0.07300
C3713       C  0.16605153  0.14447218  0.42165712    -0.22300
C3714       C  0.14160831  0.12346724  0.42661042     0.09600
C3715       C  0.14830826  0.09019778  0.43231751     0.10000
C3716       C  0.17942251  0.07990393  0.43400631    -0.17300
C3717       C  0.20434045  0.10221233  0.43034753    -0.27700
C3718       C  0.19734793  0.13450827  0.42348127     0.18400
C3719       C  0.10980371  0.13858241  0.42764471     0.12300
C3720       C  0.12269103  0.06617982  0.43732073    -0.12000
H3721       H  0.18412510  0.05479693  0.43891194     0.12600
C3722       C  0.22225692  0.15930166  0.41834749    -0.22900
H3723       H  0.16056451  0.16974590  0.41705099     0.08300
C3724       C  0.10281766  0.16372885  0.43816485     0.04600
C3725       C  0.07201611  0.17490359  0.43993194    -0.20100
C3726       C  0.04761485  0.16115504  0.43169158    -0.12400
C3727       C  0.05473351  0.13643269  0.42091495     0.13300
C3728       C  0.08584648  0.12576092  0.41894709    -0.22800
C3729       C  0.12761196  0.17778018  0.44798655    -0.05900
H3730       H  0.06680576  0.19354131  0.44827709     0.14800
C3731       C  0.02992589  0.12137079  0.41139364    -0.16100
H3732       H  0.09144401  0.10656621  0.41085273     0.09200
H3733       H  0.23566906  0.16969055  0.42750315     0.07000
H3734       H  0.21222191  0.18215367  0.41265461     0.08200
H3735       H  0.23802679  0.14557280  0.41083340     0.07300
H3736       H  0.10743923  0.05913266  0.42824314     0.02100
H3737       H  0.10861522  0.07937279  0.44564822     0.02600
H3738       H  0.13204981  0.04150696  0.44188468     0.06100
H3739       H  0.11785022  0.19623131  0.45595377     0.05100
H3740       H  0.14550819  0.19210303  0.44178088    -0.00700
H3741       H  0.13879336  0.15584884  0.45381988     0.00800
H3742       H  0.04003058  0.10427644  0.40302757     0.04500
H3743       H  0.01704444  0.14286660  0.40604519     0.06400
H3744       H  0.01354298  0.10515673  0.41770431     0.07300
C3745       C  0.82196265  0.10844331  0.48576795    -0.22300
C3746       C  0.83264925  0.07572175  0.49056045     0.09600
C3747       C  0.86259068  0.06419538  0.48658071     0.10000
C3748       C  0.88136482  0.08579235  0.47809741    -0.17300
C3749       C  0.87128874  0.11908755  0.47363217    -0.27700
C3750       C  0.84102606  0.13042762  0.47741727     0.18400
C3751       C  0.81226473  0.05366581  0.49970645     0.12300
C3752       C  0.87512566  0.02948467  0.49162801    -0.12000
H3753       H  0.90469806  0.07718156  0.47546481     0.12600
C3754       C  0.82853897  0.16519185  0.47246118    -0.22900
H3755       H  0.79878978  0.11693372  0.48872973     0.08300
C3756       C  0.81027783  0.05879370  0.51451743     0.04600
C3757       C  0.79146793  0.03644158  0.52275095    -0.20100
C3758       C  0.77430567  0.00885632  0.51658137    -0.12400
C3759       C  0.77662820  0.00386722  0.50157487     0.13300
C3760       C  0.79561036  0.02627159  0.49345452    -0.22800
C3761       C  0.82817375  0.08781483  0.52162641    -0.05900
H3762       H  0.79002396  0.04089087  0.53411097     0.14800
C3763       C  0.75901158  0.97562966  0.49377004    -0.16100
H3764       H  0.79749604  0.02249717  0.48205755     0.09200
H3765       H  0.80390125  0.16896169  0.47571164     0.07000
H3766       H  0.82969405  0.16664945  0.46067885     0.08200
H3767       H  0.84232807  0.18687364  0.47712555     0.07300
H3768       H  0.86013058  0.00792827  0.48767630     0.02100
H3769       H  0.87554150  0.02889661  0.50343023     0.02600
H3770       H  0.89919949  0.02475859  0.48774996     0.06100
H3771       H  0.82428032  0.08816496  0.53330074     0.05100
H3772       H  0.82068165  0.11347753  0.51726577    -0.00700
H3773       H  0.85348148  0.08431911  0.51967426     0.00800
H3774       H  0.76377666  0.97607408  0.48216107     0.04500
H3775       H  0.73357129  0.97948130  0.49516867     0.06400
H3776       H  0.76608559  0.94946171  0.49776554     0.07300
loop_ 
_geom_bond_atom_site_label_1 
_geom_bond_atom_site_label_2 
_geom_bond_distance 
_geom_bond_site_symmetry_2 
_ccdc_geom_bond_type 
Fe1          O17   2.105       .  S
Fe1           O7   2.044       .  S
Fe1          O14   2.049   1_655  S
Fe1           O6   2.098       .  S
Fe1          O12   1.941       .  S
Fe2           O5   2.089       .  S
Fe2           O9   2.054       .  S
Fe2          O13   2.092       .  S
Fe2          O18   2.040       .  S
Fe2          O12   1.940       .  S
Fe3          O21   2.064       .  S
Fe3           O8   2.093       .  S
Fe3          O15   2.084       .  S
Fe3           O4   2.055       .  S
Fe3          O12   1.946       .  S
O4           C11   1.270       .  A
O5           C19   1.274       .  A
O6           C11   1.275       .  A
O7           C10   1.267       .  A
O8           C20   1.276       .  A
O9           C22   1.269       .  A
C10          O15   1.274       .  A
C10        C3589   1.468       .  S
C11        C3685   1.489   1_655  S
O13          C16   1.272   1_655  A
O14          C16   1.267       .  A
C16        C3726   1.489       .  S
O17          C22   1.278       .  A
O18          C20   1.266       .  A
C19          O21   1.269       .  A
C19        C3749   1.487       .  S
C20        C3621   1.478       .  S
C22        C3653   1.490       .  S
Fe23         O39   2.096       .  S
Fe23         O29   2.040       .  S
Fe23         O36   2.043       .  S
Fe23         O28   2.094       .  S
Fe23         O34   1.944       .  S
Fe24         O27   2.089       .  S
Fe24         O31   2.057       .  S
Fe24         O35   2.093       .  S
Fe24         O40   2.040       .  S
Fe24         O34   1.941       .  S
Fe25         O43   2.061       .  S
Fe25         O30   2.087       .  S
Fe25         O37   2.086       .  S
Fe25         O26   2.060       .  S
Fe25         O34   1.951       .  S
O26          C33   1.270       .  A
O27          C41   1.274       .  A
O28          C33   1.273       .  A
O29          C32   1.268       .  A
O30          C42   1.274       .  A
O31          C44   1.269       .  A
C32          O37   1.274       .  A
C32        C3429   1.467       .  S
C33        C3502   1.496       .  S
O35          C38   1.274       .  A
O36          C38   1.268       .  A
C38        C3525   1.493       .  S
O39          C44   1.273       .  A
O40          C42   1.264       .  A
C41          O43   1.271       .  A
C41        C3557   1.502       .  S
C42        C3461   1.486       .  S
C44        C3662   1.497       .  S
Fe45         O61   2.033       .  S
Fe45         O51   2.096       .  S
Fe45         O58   2.096       .  S
Fe45         O50   2.033       .  S
Fe45         O56   1.937       .  S
Fe46         O49   2.042       .  S
Fe46         O53   2.101       .  S
Fe46         O57   2.057       .  S
Fe46         O62   2.105       .  S
Fe46         O56   1.945       .  S
Fe47         O65   2.084       .  S
Fe47         O52   2.047       .  S
Fe47         O59   2.060       .  S
Fe47         O48   2.075       .  S
Fe47         O56   1.935       .  S
O48          C55   1.271       .  A
O49          C63   1.267       .  A
O50          C55   1.268       .  A
O51          C54   1.275       .  A
O52          C64   1.265       .  A
O53          C66   1.276       .  A
C54          O59   1.269       .  A
C54        C3374   1.485       .  S
C55        C3246   1.483       .  S
O57          C60   1.270       .  A
O58          C60   1.274       .  A
C60        C3301   1.499       .  S
O61          C66   1.266       .  A
O62          C64   1.276       .  A
C63          O65   1.274       .  A
C63        C3269   1.466       .  S
C64        C3333   1.489       .  S
C66        C3406   1.474       .  S
Fe67         O83   2.053       .  S
Fe67         O73   2.097       .  S
Fe67         O80   2.099       .  S
Fe67         O72   2.054       .  S
Fe67         O78   1.956       .  S
Fe68         O71   2.045       .  S
Fe68         O75   2.080       .  S
Fe68         O79   2.054       .  S
Fe68         O84   2.082       .  S
Fe68         O78   1.953       .  S
Fe69         O87   2.080       .  S
Fe69         O74   2.068       .  S
Fe69         O81   2.056       .  S
Fe69         O70   2.086       .  S
Fe69         O78   1.953       .  S
O70          C77   1.274       .  A
O71          C85   1.267       .  A
O72          C77   1.269       .  A
O73          C76   1.276       .  A
O74          C86   1.271       .  A
O75          C88   1.270       .  A
C76          O81   1.267       .  A
C76        C3173   1.497       .  S
C77        C3109   1.471       .  S
O79          C82   1.270       .  A
O80          C82   1.276       .  A
C82        C3310   1.488       .  S
O83          C88   1.267       .  A
O84          C86   1.270       .  A
C85          O87   1.273       .  A
C85        C3470   1.467       .  S
C86        C3141   1.504       .  S
C88        C3214   1.474       .  S
Fe89        O105   2.091       .  S
Fe89         O95   2.046       .  S
Fe89        O102   2.045       .  S
Fe89         O94   2.089       .  S
Fe89        O100   1.952       .  S
Fe90         O93   2.080       .  S
Fe90         O97   2.056       .  S
Fe90        O101   2.086       .  S
Fe90        O106   2.048       .  S
Fe90        O100   1.954       .  S
Fe91        O109   2.067       .  S
Fe91         O96   2.076       .  S
Fe91        O103   2.079       .  S
Fe91         O92   2.063       .  S
Fe91        O100   1.953       .  S
O92          C99   1.269       .  A
O93         C107   1.270       .  A
O94          C99   1.272       .  A
O95          C98   1.268       .  A
O96         C108   1.273       .  A
O97         C110   1.270       .  A
C98         O103   1.273       .  A
C98        C2926   1.472       .  S
C99        C3022   1.492       .  S
O101        C104   1.271       .  A
O102        C104   1.267       .  A
C104       C3045   1.495       .  S
O105        C110   1.273       .  A
O106        C108   1.269       .  A
C107        O109   1.271       .  A
C107       C3077   1.504       .  S
C108       C2949   1.473       .  S
C110       C2981   1.496       .  S
Fe111       O127   2.092       .  S
Fe111       O117   2.044       .  S
Fe111       O124   2.048       .  S
Fe111       O116   2.082       .  S
Fe111       O122   1.939       .  S
Fe112       O115   2.083       .  S
Fe112       O119   2.051       .  S
Fe112       O123   2.092       .  S
Fe112       O128   2.041       .  S
Fe112       O122   1.941       .  S
Fe113       O131   2.057       .  S
Fe113       O118   2.091       .  S
Fe113       O125   2.092       .  S
Fe113       O114   2.053       .  S
Fe113       O122   1.943       .  S
O114        C121   1.267       .  A
O115        C129   1.272       .  A
O116        C121   1.270       .  A
O117        C120   1.269       .  A
O118        C130   1.275       .  A
O119        C132   1.267       .  A
C120        O125   1.276       .  A
C120       C2798   1.468       .  S
C121       C2821   1.488       .  S
O123        C126   1.272       .  A
O124        C126   1.267       .  A
C126       C2853   1.475       .  S
O127        C132   1.274       .  A
O128        C130   1.268       .  A
C129        O131   1.269       .  A
C129       C2894   1.486       .  S
C130       C3278   1.479       .  S
C132       C2990   1.486       .  S
Fe133       O149   2.047       .  S
Fe133       O139   2.089       .  S
Fe133       O146   2.096       .  S
Fe133       O138   2.041       .  S
Fe133       O144   1.940       .  S
Fe134       O137   2.043       .  S
Fe134       O141   2.081       .  S
Fe134       O145   2.060       .  S
Fe134       O150   2.077       .  S
Fe134       O144   1.941       .  S
Fe135       O153   2.083       .  S
Fe135       O140   2.058       .  S
Fe135       O147   2.060       .  S
Fe135       O136   2.081       .  S
Fe135       O144   1.950       .  S
O136        C143   1.272       .  A
O137        C151   1.267       .  A
O138        C143   1.267       .  A
O139        C142   1.273       .  A
O140        C152   1.269       .  A
O141        C154   1.272       .  A
C142        O147   1.270       .  A
C142       C2725   1.486       .  S
C143       C2638   1.459       .  S
O145        C148   1.270       .  A
O146        C148   1.274       .  A
C148       C2670   1.504       .  S
O149        C154   1.266       .  A
O150        C152   1.273       .  A
C151        O153   1.273       .  A
C151       C2958   1.475       .  S
C152       C2702   1.484       .  S
C154       C2757   1.474       .  S
Fe155       O171   2.040   1_455  S
Fe155       O161   2.091       .  S
Fe155       O168   2.093       .  S
Fe155       O160   2.042       .  S
Fe155       O166   1.958       .  S
Fe156       O159   2.051       .  S
Fe156       O163   2.095       .  S
Fe156       O167   2.067       .  S
Fe156       O172   2.091       .  S
Fe156       O166   1.960       .  S
Fe157       O175   2.077       .  S
Fe157       O162   2.067       .  S
Fe157       O169   2.071       .  S
Fe157       O158   2.081       .  S
Fe157       O166   1.956       .  S
O158        C165   1.274       .  A
O159        C173   1.268       .  A
O160        C165   1.269       .  A
O161        C164   1.273       .  A
O162        C174   1.271       .  A
O163        C176   1.273   1_455  A
C164        O169   1.268       .  A
C164       C2574   1.508   1_455  S
C165       C2510   1.467       .  S
O167        C170   1.271       .  A
O168        C170   1.273       .  A
C170       C2661   1.503       .  S
O171        C176   1.265       .  A
O172        C174   1.273       .  A
C173        O175   1.273       .  A
C173       C3630   1.470       .  S
C174       C2542   1.508       .  S
C176       C2606   1.469       .  S
Fe177       O193   2.044       .  S
Fe177       O183   2.087       .  S
Fe177       O190   2.087       .  S
Fe177       O182   2.045       .  S
Fe177       O188   1.948       .  S
Fe178       O181   2.048       .  S
Fe178       O185   2.095       .  S
Fe178       O189   2.060       .  S
Fe178       O194   2.098       .  S
Fe178       O188   1.949       .  S
Fe179       O197   2.077       .  S
Fe179       O184   2.052       .  S
Fe179       O191   2.055       .  S
Fe179       O180   2.081       .  S
Fe179       O188   1.945       .  S
O180        C187   1.274   1_565  A
O181        C195   1.266       .  A
O182        C187   1.269   1_565  A
O183        C186   1.271       .  A
O184        C196   1.269       .  A
O185        C198   1.277       .  A
C186        O191   1.269       .  A
C186       C2885   1.495   1_565  S
C187       C2373   1.471       .  S
O189        C192   1.267       .  A
O190        C192   1.273       .  A
C192       C2437   1.502       .  S
O193        C198   1.266       .  A
O194        C196   1.276       .  A
C195        O197   1.272       .  A
C195       C2405   1.471       .  S
C196       C2478   1.480       .  S
C198       C3397   1.497       .  S
Fe199       O215   2.053   1_455  S
Fe199       O205   2.085       .  S
Fe199       O212   2.091       .  S
Fe199       O204   2.049       .  S
Fe199       O210   1.952       .  S
Fe200       O203   2.036       .  S
Fe200       O207   2.083       .  S
Fe200       O211   2.052       .  S
Fe200       O216   2.082       .  S
Fe200       O210   1.948       .  S
Fe201       O219   2.072       .  S
Fe201       O206   2.074       .  S
Fe201       O213   2.063       .  S
Fe201       O202   2.073       .  S
Fe201       O210   1.956       .  S
O202        C209   1.271   1_565  A
O203        C217   1.266       .  A
O204        C209   1.269   1_565  A
O205        C208   1.272   1_455  A
O206        C218   1.273       .  A
O207        C220   1.272   1_455  A
C208        O213   1.270   1_655  A
C208       C3566   1.483   1_565  S
C209       C2286   1.462       .  S
O211        C214   1.267       .  A
O212        C214   1.274       .  A
C214       C2446   1.490       .  S
O215        C220   1.267       .  A
O216        C218   1.273       .  A
C217        O219   1.270       .  A
C217       C2309   1.460       .  S
C218       C2350   1.491       .  S
C220       C3205   1.478       .  S
Fe221       O237   2.097       .  S
Fe221       O227   2.047       .  S
Fe221       O234   2.048   1_655  S
Fe221       O226   2.091       .  S
Fe221       O232   1.945       .  S
Fe222       O225   2.093       .  S
Fe222       O229   2.052       .  S
Fe222       O233   2.095       .  S
Fe222       O238   2.034       .  S
Fe222       O232   1.949       .  S
Fe223       O241   2.059       .  S
Fe223       O228   2.077       .  S
Fe223       O235   2.076       .  S
Fe223       O224   2.060       .  S
Fe223       O232   1.949       .  S
O224        C231   1.269       .  A
O225        C239   1.275       .  A
O226        C231   1.273       .  A
O227        C230   1.269       .  A
O228        C240   1.272       .  A
O229        C242   1.269       .  A
C230        O235   1.273       .  A
C230       C3438   1.469       .  S
C231       C2222   1.488   1_655  S
O233        C236   1.273   1_655  A
O234        C236   1.268       .  A
C236       C2245   1.496       .  S
O237        C242   1.274       .  A
O238        C240   1.267       .  A
C239        O241   1.267       .  A
C239       C3182   1.498       .  S
C240       C2318   1.477       .  S
C242       C2190   1.501       .  S
Fe243       O259   2.092       .  S
Fe243       O249   2.048       .  S
Fe243       O256   2.057       .  S
Fe243       O248   2.090       .  S
Fe243       O254   1.946       .  S
Fe244       O247   2.101       .  S
Fe244       O251   2.058       .  S
Fe244       O255   2.098       .  S
Fe244       O260   2.038       .  S
Fe244       O254   1.944       .  S
Fe245       O263   2.060       .  S
Fe245       O250   2.076       .  S
Fe245       O257   2.080       .  S
Fe245       O246   2.053       .  S
Fe245       O254   1.945       .  S
O246        C253   1.266       .  A
O247        C261   1.276       .  A
O248        C253   1.273       .  A
O249        C252   1.270       .  A
O250        C262   1.272       .  A
O251        C264   1.269       .  A
C252        O257   1.273       .  A
C252       C3598   1.471       .  S
C253       C2126   1.490       .  S
O255        C258   1.274       .  A
O256        C258   1.269       .  A
C258       C2149   1.499       .  S
O259        C264   1.275       .  A
O260        C262   1.267       .  A
C261        O263   1.268       .  A
C261       C2565   1.496       .  S
C262       C2094   1.461       .  S
C264       C2181   1.491       .  S
Fe265       O281   2.049       .  S
Fe265       O271   2.086       .  S
Fe265       O278   2.090       .  S
Fe265       O270   2.048   1_565  S
Fe265       O276   1.959       .  S
Fe266       O269   2.044       .  S
Fe266       O273   2.078       .  S
Fe266       O277   2.055       .  S
Fe266       O282   2.077       .  S
Fe266       O276   1.957       .  S
Fe267       O285   2.080       .  S
Fe267       O272   2.071       .  S
Fe267       O279   2.061       .  S
Fe267       O268   2.084       .  S
Fe267       O276   1.958       .  S
O268        C275   1.273   1_565  A
O269        C283   1.267       .  A
O270        C275   1.267       .  A
O271        C274   1.272       .  A
O272        C284   1.272       .  A
O273        C286   1.270       .  A
C274        O279   1.269       .  A
C274       C3086   1.490   1_565  S
C275       C1957   1.465       .  S
O277        C280   1.270       .  A
O278        C280   1.273       .  A
C280       C2021   1.498       .  S
O281        C286   1.266       .  A
O282        C284   1.270       .  A
C283        O285   1.273       .  A
C283       C1989   1.468       .  S
C284       C2062   1.504       .  S
C286       C2766   1.473       .  S
Fe287       O303   2.052       .  S
Fe287       O293   2.096       .  S
Fe287       O300   2.098       .  S
Fe287       O292   2.044   1_565  S
Fe287       O298   1.944       .  S
Fe288       O291   2.045       .  S
Fe288       O295   2.088       .  S
Fe288       O299   2.051       .  S
Fe288       O304   2.087       .  S
Fe288       O298   1.950       .  S
Fe289       O307   2.071       .  S
Fe289       O294   2.065       .  S
Fe289       O301   2.059       .  S
Fe289       O290   2.077       .  S
Fe289       O298   1.946       .  S
O290        C297   1.272   1_565  A
O291        C305   1.267       .  A
O292        C297   1.268       .  A
O293        C296   1.276       .  A
O294        C306   1.269       .  A
O295        C308   1.270       .  A
C296        O301   1.268       .  A
C296       C3758   1.504   1_565  S
C297       C1893   1.465       .  S
O299        C302   1.271       .  A
O300        C302   1.276       .  A
C302       C2030   1.500       .  S
O303        C308   1.268       .  A
O304        C306   1.273       .  A
C305        O307   1.273       .  A
C305       C2085   1.464       .  S
C306       C1925   1.492       .  S
C308       C2597   1.494       .  S
Fe309       O325   2.097       .  S
Fe309       O315   2.042       .  S
Fe309       O322   2.049       .  S
Fe309       O314   2.096       .  S
Fe309       O320   1.944       .  S
Fe310       O313   2.090       .  S
Fe310       O317   2.050       .  S
Fe310       O321   2.089       .  S
Fe310       O326   2.041       .  S
Fe310       O320   1.938       .  S
Fe311       O329   2.061       .  S
Fe311       O316   2.087       .  S
Fe311       O323   2.086       .  S
Fe311       O312   2.056       .  S
Fe311       O320   1.947       .  S
O312        C319   1.269       .  A
O313        C327   1.274       .  A
O314        C319   1.274       .  A
O315        C318   1.268       .  A
O316        C328   1.274       .  A
O317        C330   1.267       .  A
C318        O323   1.274       .  A
C318       C2917   1.465       .  S
C319       C1838   1.482       .  S
O321        C324   1.274       .  A
O322        C324   1.266       .  A
C324       C1861   1.497       .  S
O325        C330   1.276       .  A
O326        C328   1.265       .  A
C327        O329   1.271       .  A
C327       C2734   1.498       .  S
C328       C1998   1.481       .  S
C330       C1806   1.493       .  S
Fe331       O347   2.094       .  S
Fe331       O337   2.042       .  S
Fe331       O344   2.042       .  S
Fe331       O336   2.094       .  S
Fe331       O342   1.947       .  S
Fe332       O335   2.105       .  S
Fe332       O339   2.060       .  S
Fe332       O343   2.100       .  S
Fe332       O348   2.044       .  S
Fe332       O342   1.947       .  S
Fe333       O351   2.056       .  S
Fe333       O338   2.087       .  S
Fe333       O345   2.088       .  S
Fe333       O334   2.052       .  S
Fe333       O342   1.943       .  S
O334        C341   1.268       .  A
O335        C349   1.276       .  A
O336        C341   1.273       .  A
O337        C340   1.268       .  A
O338        C350   1.272       .  A
O339        C352   1.271       .  A
C340        O345   1.275       .  A
C340       C2789   1.473       .  S
C341       C1742   1.491       .  S
O343        C346   1.276       .  A
O344        C346   1.265       .  A
C346       C1765   1.488       .  S
O347        C352   1.274       .  A
O348        C350   1.268       .  A
C349        O351   1.267       .  A
C349       C3365   1.485       .  S
C350       C2414   1.479       .  S
C352       C1797   1.502       .  S
Fe353       O369   2.042       .  S
Fe353       O359   2.081       .  S
Fe353       O366   2.099       .  S
Fe353       O358   2.036       .  S
Fe353       O364   1.941       .  S
Fe354       O357   2.040       .  S
Fe354       O361   2.087       .  S
Fe354       O365   2.048       .  S
Fe354       O370   2.071       .  S
Fe354       O364   1.946       .  S
Fe355       O373   2.081       .  S
Fe355       O360   2.064       .  S
Fe355       O367   2.064       .  S
Fe355       O356   2.075       .  S
Fe355       O364   1.953       .  S
O356        C363   1.271       .  A
O357        C371   1.267       .  A
O358        C363   1.267       .  A
O359        C362   1.272       .  A
O360        C372   1.268       .  A
O361        C374   1.270       .  A
C362        O367   1.271       .  A
C362       C1669   1.485       .  S
C363       C3237   1.460       .  S
O365        C368   1.268       .  A
O366        C368   1.275       .  A
C368       C1637   1.486       .  S
O369        C374   1.263       .  A
O370        C372   1.270       .  A
C371        O373   1.274       .  A
C371       C1614   1.472       .  S
C372       C2830   1.481       .  S
C374       C1701   1.466       .  S
Fe375       O391   2.056       .  S
Fe375       O381   2.093       .  S
Fe375       O388   2.099       .  S
Fe375       O380   2.049       .  S
Fe375       O386   1.945       .  S
Fe376       O379   2.041       .  S
Fe376       O383   2.093       .  S
Fe376       O387   2.056       .  S
Fe376       O392   2.090       .  S
Fe376       O386   1.949       .  S
Fe377       O395   2.087       .  S
Fe377       O382   2.061       .  S
Fe377       O389   2.056       .  S
Fe377       O378   2.085       .  S
Fe377       O386   1.948       .  S
O378        C385   1.274       .  A
O379        C393   1.269       .  A
O380        C385   1.268       .  A
O381        C384   1.275       .  A
O382        C394   1.268       .  A
O383        C396   1.271       .  A
C384        O389   1.267       .  A
C384       C1541   1.499       .  S
C385       C3118   1.472       .  S
O387        C390   1.272       .  A
O388        C390   1.276       .  A
C390       C1646   1.503       .  S
O391        C396   1.268       .  A
O392        C394   1.273       .  A
C393        O395   1.274       .  A
C393       C1518   1.467       .  S
C394       C3493   1.487       .  S
C396       C1582   1.502       .  S
Fe397       O413   2.101       .  S
Fe397       O403   2.046       .  S
Fe397       O410   2.051       .  S
Fe397       O402   2.102       .  S
Fe397       O408   1.941       .  S
Fe398       O401   2.092       .  S
Fe398       O405   2.053       .  S
Fe398       O409   2.091       .  S
Fe398       O414   2.041       .  S
Fe398       O408   1.944       .  S
Fe399       O417   2.060       .  S
Fe399       O404   2.098       .  S
Fe399       O411   2.092       .  S
Fe399       O400   2.059       .  S
Fe399       O408   1.947       .  S
O400        C407   1.269       .  A
O401        C415   1.274       .  A
O402        C407   1.276       .  A
O403        C406   1.267       .  A
O404        C416   1.277       .  A
O405        C418   1.270       .  A
C406        O411   1.275       .  A
C406       C1390   1.470   1_545  S
C407       C2533   1.489       .  S
O409        C412   1.272       .  A
O410        C412   1.268       .  A
C412       C3717   1.499       .  S
O413        C418   1.276       .  A
O414        C416   1.266       .  A
C415        O417   1.268       .  A
C415       C1486   1.488       .  S
C416       C1422   1.474       .  S
C418       C1454   1.493       .  S
Fe419       O435   2.091       .  S
Fe419       O425   2.038   1_545  S
Fe419       O432   2.044       .  S
Fe419       O424   2.095       .  S
Fe419       O430   1.955       .  S
Fe420       O423   2.092       .  S
Fe420       O427   2.057       .  S
Fe420       O431   2.095       .  S
Fe420       O436   2.047       .  S
Fe420       O430   1.950       .  S
Fe421       O439   2.065       .  S
Fe421       O426   2.079       .  S
Fe421       O433   2.077       .  S
Fe421       O422   2.063       .  S
Fe421       O430   1.953       .  S
O422        C429   1.269       .  A
O423        C437   1.272       .  A
O424        C429   1.274       .  A
O425        C428   1.266       .  A
O426        C438   1.273       .  A
O427        C440   1.269       .  A
C428        O433   1.273   1_565  A
C428       C1317   1.464       .  S
C429       C3150   1.486   1_545  S
O431        C434   1.275       .  A
O432        C434   1.267       .  A
C434       C3534   1.486       .  S
O435        C440   1.273       .  A
O436        C438   1.269       .  A
C437        O439   1.270       .  A
C437       C1349   1.506       .  S
C438       C1509   1.481       .  S
C440       C1445   1.479       .  S
Fe441       O457   2.058   1_455  S
Fe441       O447   2.087       .  S
Fe441       O454   2.097       .  S
Fe441       O446   2.051       .  S
Fe441       O452   1.962       .  S
Fe442       O445   2.043       .  S
Fe442       O449   2.082       .  S
Fe442       O453   2.058       .  S
Fe442       O458   2.082       .  S
Fe442       O452   1.959       .  S
Fe443       O461   2.066       .  S
Fe443       O448   2.067       .  S
Fe443       O455   2.061       .  S
Fe443       O444   2.065       .  S
Fe443       O452   1.962       .  S
O444        C451   1.270       .  A
O445        C459   1.268       .  A
O446        C451   1.269       .  A
O447        C450   1.273   1_455  A
O448        C460   1.269       .  A
O449        C462   1.271   1_455  A
C450        O455   1.269   1_655  A
C450       C1253   1.488       .  S
C451       C2629   1.467       .  S
O453        C456   1.269       .  A
O454        C456   1.276       .  A
C456       C1230   1.496       .  S
O457        C462   1.267       .  A
O458        C460   1.272       .  A
C459        O461   1.270       .  A
C459       C1189   1.461       .  S
C460       C3013   1.491       .  S
C462       C1285   1.484       .  S
Fe463       O479   2.045       .  S
Fe463       O469   2.095       .  S
Fe463       O476   2.097       .  S
Fe463       O468   2.040       .  S
Fe463       O474   1.950       .  S
Fe464       O467   2.051       .  S
Fe464       O471   2.086       .  S
Fe464       O475   2.059       .  S
Fe464       O480   2.085       .  S
Fe464       O474   1.952       .  S
Fe465       O483   2.080       .  S
Fe465       O470   2.063       .  S
Fe465       O477   2.060       .  S
Fe465       O466   2.081       .  S
Fe465       O474   1.951       .  S
O466        C473   1.272       .  A
O467        C481   1.269       .  A
O468        C473   1.265       .  A
O469        C472   1.276       .  A
O470        C482   1.269       .  A
O471        C484   1.271       .  A
C472        O477   1.269       .  A
C472       C1125   1.498       .  S
C473       C2501   1.466       .  S
O475        C478   1.269       .  A
O476        C478   1.276       .  A
C478       C1221   1.499       .  S
O479        C484   1.266       .  A
O480        C482   1.274       .  A
C481        O483   1.272       .  A
C481       C1413   1.480       .  S
C482       C3694   1.492       .  S
C484       C1166   1.490       .  S
Fe485       O501   2.084       .  S
Fe485       O491   2.051       .  S
Fe485       O498   2.043   1_655  S
Fe485       O490   2.078       .  S
Fe485       O496   1.945       .  S
Fe486       O489   2.088       .  S
Fe486       O493   2.056       .  S
Fe486       O497   2.091       .  S
Fe486       O502   2.046       .  S
Fe486       O496   1.949       .  S
Fe487       O505   2.058       .  S
Fe487       O492   2.072       .  S
Fe487       O499   2.078       .  S
Fe487       O488   2.055       .  S
Fe487       O496   1.944       .  S
O488        C495   1.268       .  A
O489        C503   1.275       .  A
O490        C495   1.270       .  A
O491        C494   1.269       .  A
O492        C504   1.270       .  A
O493        C506   1.268       .  A
C494        O499   1.272       .  A
C494       C1029   1.472   1_545  S
C495       C2693   1.483   1_655  S
O497        C500   1.272   1_655  A
O498        C500   1.267       .  A
C500       C3054   1.481       .  S
O501        C506   1.273       .  A
O502        C504   1.268       .  A
C503        O505   1.269       .  A
C503       C1093   1.490       .  S
C504       C1198   1.478       .  S
C506       C1061   1.487       .  S
Fe507       O523   2.091       .  S
Fe507       O513   2.051       .  S
Fe507       O520   2.059       .  S
Fe507       O512   2.087       .  S
Fe507       O518   1.943       .  S
Fe508       O511   2.091       .  S
Fe508       O515   2.054       .  S
Fe508       O519   2.089       .  S
Fe508       O524   2.045       .  S
Fe508       O518   1.944       .  S
Fe509       O527   2.066       .  S
Fe509       O514   2.076       .  S
Fe509       O521   2.091       .  S
Fe509       O510   2.060       .  S
Fe509       O518   1.942       .  S
O510        C517   1.267       .  A
O511        C525   1.272       .  A
O512        C517   1.272       .  A
O513        C516   1.271   1_545  A
O514        C526   1.275       .  A
O515        C528   1.270       .  A
C516        O521   1.277   1_565  A
C516        C965   1.474       .  S
C517       C3342   1.479   1_545  S
O519        C522   1.274       .  A
O520        C522   1.268       .  A
C522       C2862   1.493       .  S
O523        C528   1.273       .  A
O524        C526   1.267       .  A
C525        O527   1.272       .  A
C525        C997   1.506       .  S
C526       C1605   1.469       .  S
C528       C1070   1.497       .  S
Fe529       O545   2.093       .  S
Fe529       O535   2.060       .  S
Fe529       O542   2.056   1_655  S
Fe529       O534   2.077       .  S
Fe529       O540   1.954       .  S
Fe530       O533   2.075       .  S
Fe530       O537   2.060       .  S
Fe530       O541   2.084       .  S
Fe530       O546   2.054       .  S
Fe530       O540   1.959       .  S
Fe531       O549   2.068       .  S
Fe531       O536   2.074       .  S
Fe531       O543   2.078       .  S
Fe531       O532   2.068       .  S
Fe531       O540   1.956       .  S
O532        C539   1.270       .  A
O533        C547   1.269       .  A
O534        C539   1.271       .  A
O535        C538   1.272       .  A
O536        C548   1.272       .  A
O537        C550   1.269       .  A
C538        O543   1.272       .  A
C538        C974   1.484       .  S
C539       C2469   1.486   1_655  S
O541        C544   1.270   1_655  A
O542        C544   1.267       .  A
C544       C1774   1.472       .  S
O545        C550   1.274       .  A
O546        C548   1.270       .  A
C547        O549   1.272       .  A
C547       C1678   1.501       .  S
C548        C910   1.480       .  S
C550        C933   1.488       .  S
Fe551       O567   2.101       .  S
Fe551       O557   2.041       .  S
Fe551       O564   2.044       .  S
Fe551       O556   2.097       .  S
Fe551       O562   1.943       .  S
Fe552       O555   2.088       .  S
Fe552       O559   2.058       .  S
Fe552       O563   2.090       .  S
Fe552       O568   2.046       .  S
Fe552       O562   1.947       .  S
Fe553       O571   2.061       .  S
Fe553       O558   2.089       .  S
Fe553       O565   2.092       .  S
Fe553       O554   2.059       .  S
Fe553       O562   1.948       .  S
O554        C561   1.268       .  A
O555        C569   1.272       .  A
O556        C561   1.275       .  A
O557        C560   1.267       .  A
O558        C570   1.276       .  A
O559        C572   1.271       .  A
C560        O565   1.276       .  A
C560       C1038   1.470       .  S
C561       C2053   1.488       .  S
O563        C566   1.272       .  A
O564        C566   1.265       .  A
C566       C1870   1.479       .  S
O567        C572   1.276       .  A
O568        C570   1.268       .  A
C569        O571   1.271       .  A
C569       C1262   1.503       .  S
C570        C869   1.472       .  S
C572        C942   1.502       .  S
Fe573       O589   2.043   1_455  S
Fe573       O579   2.099   1_455  S
Fe573       O586   2.103       .  S
Fe573       O578   2.046       .  S
Fe573       O584   1.944       .  S
Fe574       O577   2.047       .  S
Fe574       O581   2.093       .  S
Fe574       O585   2.063       .  S
Fe574       O590   2.087       .  S
Fe574       O584   1.949       .  S
Fe575       O593   2.079       .  S
Fe575       O580   2.055       .  S
Fe575       O587   2.057       .  S
Fe575       O576   2.078       .  S
Fe575       O584   1.950       .  S
O576        C583   1.271       .  A
O577        C591   1.269       .  A
O578        C583   1.267       .  A
O579        C582   1.275       .  A
O580        C592   1.267       .  A
O581        C594   1.273   1_455  A
C582        O587   1.269   1_655  A
C582       C1006   1.489       .  S
C583       C2382   1.461       .  S
O585        C588   1.270       .  A
O586        C588   1.277       .  A
C588        C846   1.496       .  S
O589        C594   1.267       .  A
O590        C592   1.274       .  A
C591        O593   1.272       .  A
C591        C901   1.470       .  S
C592       C1733   1.488       .  S
C594       C1710   1.494       .  S
Fe595       O611   2.053       .  S
Fe595       O601   2.096       .  S
Fe595       O608   2.106       .  S
Fe595       O600   2.047       .  S
Fe595       O606   1.949       .  S
Fe596       O599   2.036       .  S
Fe596       O603   2.094       .  S
Fe596       O607   2.053       .  S
Fe596       O612   2.092       .  S
Fe596       O606   1.949       .  S
Fe597       O615   2.082       .  S
Fe597       O602   2.064       .  S
Fe597       O609   2.067       .  S
Fe597       O598   2.078       .  S
Fe597       O606   1.954       .  S
O598        C605   1.274       .  A
O599        C613   1.265       .  A
O600        C605   1.270       .  A
O601        C604   1.273       .  A
O602        C614   1.269       .  A
O603        C616   1.273       .  A
C604        O609   1.270       .  A
C604       C1358   1.499       .  S
C605       C2277   1.464       .  S
O607        C610   1.266       .  A
O608        C610   1.277       .  A
C610        C837   1.507       .  S
O611        C616   1.268       .  A
O612        C614   1.275       .  A
C613        O615   1.273       .  A
C613        C814   1.472       .  S
C614       C2213   1.502       .  S
C616       C1573   1.477       .  S
Fe617       O633   2.103       .  S
Fe617       O623   2.038       .  S
Fe617       O630   2.043       .  S
Fe617       O622   2.097       .  S
Fe617       O628   1.941       .  S
Fe618       O621   2.090       .  S
Fe618       O625   2.057       .  S
Fe618       O629   2.092       .  S
Fe618       O634   2.036       .  S
Fe618       O628   1.945       .  S
Fe619       O637   2.062       .  S
Fe619       O624   2.080       .  S
Fe619       O631   2.084       .  S
Fe619       O620   2.065       .  S
Fe619       O628   1.950       .  S
O620        C627   1.270       .  A
O621        C635   1.275       .  A
O622        C627   1.275       .  A
O623        C626   1.266       .  A
O624        C636   1.274       .  A
O625        C638   1.268       .  A
C626        O631   1.274       .  A
C626       C1326   1.462       .  S
C627       C2341   1.500       .  S
O629        C632   1.272       .  A
O630        C632   1.267       .  A
C632       C2254   1.495       .  S
O633        C638   1.277       .  A
O634        C636   1.265       .  A
C635        O637   1.270       .  A
C635       C1550   1.489       .  S
C636        C805   1.466       .  S
C638        C773   1.501       .  S
Fe639       O655   2.110       .  S
Fe639       O645   2.052       .  S
Fe639       O652   2.059       .  S
Fe639       O644   2.099       .  S
Fe639       O650   1.946       .  S
Fe640       O643   2.091       .  S
Fe640       O647   2.051       .  S
Fe640       O651   2.091       .  S
Fe640       O656   2.036       .  S
Fe640       O650   1.947       .  S
Fe641       O659   2.058       .  S
Fe641       O646   2.085       .  S
Fe641       O653   2.086       .  S
Fe641       O642   2.057       .  S
Fe641       O650   1.952       .  S
O642        C649   1.268       .  A
O643        C657   1.275       .  A
O644        C649   1.275       .  A
O645        C648   1.270       .  A
O646        C658   1.273       .  A
O647        C660   1.269       .  A
C648        O653   1.275       .  A
C648       C1381   1.475       .  S
C649       C1934   1.495       .  S
O651        C654   1.272       .  A
O652        C654   1.269       .  A
C654       C2158   1.498       .  S
O655        C660   1.277       .  A
O656        C658   1.266       .  A
C657        O659   1.269       .  A
C657       C1134   1.492       .  S
C658        C741   1.478       .  S
C660        C782   1.507       .  S
Fe661       O677   2.061       .  S
Fe661       O667   2.099       .  S
Fe661       O674   2.099       .  S
Fe661       O666   2.046       .  S
Fe661       O672   1.949       .  S
Fe662       O665   2.042       .  S
Fe662       O669   2.084       .  S
Fe662       O673   2.060       .  S
Fe662       O678   2.086       .  S
Fe662       O672   1.943       .  S
Fe663       O681   2.097       .  S
Fe663       O668   2.055       .  S
Fe663       O675   2.050       .  S
Fe663       O664   2.093       .  S
Fe663       O672   1.948       .  S
O664        C671   1.276       .  A
O665        C679   1.265       .  A
O666        C671   1.269       .  A
O667        C670   1.275       .  A
O668        C680   1.268       .  A
O669        C682   1.272       .  A
C670        O675   1.266       .  A
C670       C1102   1.496       .  S
C671       C1966   1.474       .  S
O673        C676   1.271       .  A
O674        C676   1.275       .  A
C676        C709   1.502       .  S
O677        C682   1.269       .  A
O678        C680   1.272       .  A
C679        O681   1.277       .  A
C679        C878   1.491       .  S
C680       C1829   1.495       .  S
C682       C1294   1.478       .  S
Fe683       O699   2.042       .  S
Fe683       O689   2.095       .  S
Fe683       O696   2.096       .  S
Fe683       O688   2.044       .  S
Fe683       O694   1.945       .  S
Fe684       O687   2.049       .  S
Fe684       O691   2.087       .  S
Fe684       O695   2.059       .  S
Fe684       O700   2.086       .  S
Fe684       O694   1.947       .  S
Fe685       O703   2.073       .  S
Fe685       O690   2.058       .  S
Fe685       O697   2.056       .  S
Fe685       O686   2.078       .  S
Fe685       O694   1.948       .  S
O686        C693   1.271       .  A
O687        C701   1.266       .  A
O688        C693   1.267       .  A
O689        C692   1.276       .  A
O690        C702   1.271       .  A
O691        C704   1.273       .  A
C692        O697   1.267       .  A
C692       C1477   1.498       .  S
C693       C1902   1.469       .  S
O695        C698   1.270       .  A
O696        C698   1.274       .  A
C698        C718   1.498       .  S
O699        C704   1.265       .  A
O700        C702   1.274       .  A
C701        O703   1.270       .  A
C701        C750   1.469       .  S
C702       C2117   1.493       .  S
C704       C1157   1.482       .  S
C705        C706   1.400       .  A
C705        C710   1.409       .  A
C705        H715   1.084       .  S
C706        C711   1.489       .  S
C706        C707   1.409       .  A
C707        C708   1.406       .  A
C707        C712   1.507       .  S
C708        C709   1.411       .  A
C708        H713   1.083       .  S
C709        C710   1.425       .  A
C710        C714   1.508       .  S
C711        C716   1.410       .  A
C711        C720   1.401       .  A
C712        H728   1.110       .  S
C712        H729   1.110       .  S
C712        H730   1.111       .  S
C714        H725   1.111       .  S
C714        H726   1.110       .  S
C714        H727   1.110       .  S
C716        C717   1.405       .  A
C716        C721   1.507       .  S
C717        C718   1.409       .  A
C717        H722   1.084       .  S
C718        C719   1.423       .  A
C719        C720   1.410       .  A
C719        C723   1.507       .  S
C720        H724   1.084       .  S
C721        H731   1.111       .  S
C721        H732   1.110       .  S
C721        H733   1.110       .  S
C723        H734   1.110       .  S
C723        H735   1.111       .  S
C723        H736   1.111       .  S
C737        C738   1.401       .  A
C737        C742   1.404       .  A
C737        H747   1.084       .  S
C738        C743   1.470       .  S
C738        C739   1.406       .  A
C739        C740   1.396       .  A
C739        C744   1.508       .  S
C740        C741   1.408       .  A
C740        H745   1.084       .  S
C741        C742   1.416       .  A
C742        C746   1.507       .  S
C743        C748   1.408       .  A
C743        C752   1.402       .  A
C744        H760   1.110       .  S
C744        H761   1.109       .  S
C744        H762   1.111       .  S
C746        H757   1.110       .  S
C746        H758   1.111       .  S
C746        H759   1.109       .  S
C748        C749   1.397       .  A
C748        C753   1.508       .  S
C749        C750   1.404       .  A
C749        H754   1.085       .  S
C750        C751   1.413       .  A
C751        C752   1.402       .  A
C751        C755   1.508       .  S
C752        H756   1.085       .  S
C753        H763   1.111       .  S
C753        H764   1.110       .  S
C753        H765   1.109       .  S
C755        H766   1.109       .  S
C755        H767   1.110       .  S
C755        H768   1.111       .  S
C769        C770   1.400       .  A
C769        C774   1.408       .  A
C769        H779   1.084       .  S
C770        C775   1.491       .  S
C770        C771   1.410       .  A
C771        C772   1.408       .  A
C771        C776   1.506       .  S
C772        C773   1.410       .  A
C772        H777   1.083       .  S
C773        C774   1.425       .  A
C774        C778   1.509       .  S
C775        C780   1.408       .  A
C775        C784   1.402       .  A
C776        H792   1.110       .  S
C776        H793   1.110       .  S
C776        H794   1.111       .  S
C778        H789   1.111       .  S
C778        H790   1.111       .  S
C778        H791   1.109       .  S
C780        C781   1.404       .  A
C780        C785   1.508       .  S
C781        C782   1.413       .  A
C781        H786   1.083       .  S
C782        C783   1.425       .  A
C783        C784   1.412       .  A
C783        C787   1.507       .  S
C784        H788   1.084       .  S
C785        H795   1.111       .  S
C785        H796   1.110       .  S
C785        H797   1.110       .  S
C787        H798   1.111       .  S
C787        H799   1.110       .  S
C787        H800   1.110       .  S
C801        C802   1.400       .  A
C801        C806   1.401       .  A
C801        H811   1.084       .  S
C802        C807   1.467       .  S
C802        C803   1.408       .  A
C803        C804   1.397       .  A
C803        C808   1.508       .  S
C804        C805   1.403       .  A
C804        H809   1.084       .  S
C805        C806   1.415       .  A
C806        C810   1.509       .  S
C807        C812   1.409       .  A
C807        C816   1.394       .  A
C808        H824   1.110       .  S
C808        H825   1.110       .  S
C808        H826   1.111       .  S
C810        H821   1.111       .  S
C810        H822   1.110       .  S
C810        H823   1.109       .  S
C812        C813   1.403       .  A
C812        C817   1.506       .  S
C813        C814   1.404       .  A
C813        H818   1.084       .  S
C814        C815   1.419       .  A
C815        C816   1.395       .  A
C815        C819   1.510       .  S
C816        H820   1.084       .  S
C817        H827   1.111       .  S
C817        H828   1.110       .  S
C817        H829   1.110       .  S
C819        H830   1.111       .  S
C819        H831   1.109       .  S
C819        H832   1.109       .  S
C833        C834   1.399       .  A
C833        C838   1.407       .  A
C833        H843   1.085       .  S
C834        C839   1.493       .  S
C834        C835   1.410       .  A
C835        C836   1.410       .  A
C835        C840   1.506       .  S
C836        C837   1.412       .  A
C836        H841   1.083       .  S
C837        C838   1.428       .  A
C838        C842   1.509       .  S
C839        C844   1.412       .  A
C839        C848   1.402       .  A
C840        H856   1.110       .  S
C840        H857   1.110       .  S
C840        H858   1.111       .  S
C842        H853   1.111       .  S
C842        H854   1.110       .  S
C842        H855   1.110       .  S
C844        C845   1.408       .  A
C844        C849   1.506       .  S
C845        C846   1.408       .  A
C845        H850   1.084       .  S
C846        C847   1.421       .  A
C847        C848   1.409       .  A
C847        C851   1.508       .  S
C848        H852   1.084       .  S
C849        H859   1.111       .  S
C849        H860   1.110       .  S
C849        H861   1.110       .  S
C851        H862   1.109       .  S
C851        H863   1.111       .  S
C851        H864   1.111       .  S
C865        C866   1.403       .  A
C865        C870   1.404       .  A
C865        H875   1.085       .  S
C866        C871   1.479       .  S
C866        C867   1.411       .  A
C867        C868   1.399       .  A
C867        C872   1.508       .  S
C868        C869   1.404       .  A
C868        H873   1.085       .  S
C869        C870   1.415       .  A
C870        C874   1.508       .  S
C871        C876   1.409       .  A
C871        C880   1.395       .  A
C872        H888   1.109       .  S
C872        H889   1.110       .  S
C872        H890   1.111       .  S
C874        H885   1.110       .  S
C874        H886   1.110       .  S
C874        H887   1.107       .  S
C876        C877   1.406       .  A
C876        C881   1.506       .  S
C877        C878   1.410       .  A
C877        H882   1.084       .  S
C878        C879   1.426       .  A
C879        C880   1.398       .  A
C879        C883   1.511       .  S
C880        H884   1.085       .  S
C881        H891   1.111       .  S
C881        H892   1.110       .  S
C881        H893   1.110       .  S
C883        H894   1.111       .  S
C883        H895   1.110       .  S
C883        H896   1.109       .  S
C897        C898   1.402   1_655  A
C897        C902   1.402       .  A
C897        H907   1.084   1_554  S
C898        C903   1.473   1_455  S
C898        C899   1.407       .  A
C899        C900   1.398       .  A
C899        C904   1.507       .  S
C900        C901   1.405       .  A
C900        H905   1.084       .  S
C901        C902   1.415   1_455  A
C902        C906   1.508       .  S
C903        C908   1.408   1_654  A
C903        C912   1.397       .  A
C904        H920   1.110       .  S
C904        H921   1.110       .  S
C904        H922   1.111       .  S
C906        H917   1.110   1_554  S
C906        H918   1.110   1_554  S
C906        H919   1.107       .  S
C908        C909   1.403       .  A
C908        C913   1.506       .  S
C909        C910   1.407   1_455  A
C909        H914   1.084       .  S
C910        C911   1.420       .  A
C911        C912   1.400   1_556  A
C911        C915   1.510   1_556  S
C912        H916   1.084       .  S
C913        H923   1.111       .  S
C913        H924   1.110       .  S
C913        H925   1.110       .  S
C915        H926   1.111       .  S
C915        H927   1.110   1_554  S
C915        H928   1.110       .  S
C929        C930   1.402       .  A
C929        C934   1.407       .  A
C929        H939   1.084       .  S
C930        C935   1.488       .  S
C930        C931   1.411       .  A
C931        C932   1.407       .  A
C931        C936   1.506       .  S
C932        C933   1.407       .  A
C932        H937   1.084       .  S
C933        C934   1.418       .  A
C934        C938   1.508       .  S
C935        C940   1.408       .  A
C935        C944   1.401       .  A
C936        H952   1.110       .  S
C936        H953   1.110       .  S
C936        H954   1.111       .  S
C938        H949   1.111       .  S
C938        H950   1.111       .  S
C938        H951   1.109       .  S
C940        C941   1.404       .  A
C940        C945   1.507       .  S
C941        C942   1.411       .  A
C941        H946   1.083       .  S
C942        C943   1.425       .  A
C943        C944   1.410       .  A
C943        C947   1.507       .  S
C944        H948   1.084       .  S
C945        H955   1.111       .  S
C945        H956   1.110       .  S
C945        H957   1.110       .  S
C947        H958   1.111       .  S
C947        H959   1.110       .  S
C947        H960   1.109       .  S
C961        C962   1.405       .  A
C961        C966   1.402       .  A
C961        H971   1.085       .  S
C962        C967   1.489       .  S
C962        C963   1.415       .  A
C963        C964   1.403       .  A
C963        C968   1.508       .  S
C964        C965   1.403       .  A
C964        H969   1.085       .  S
C965        C966   1.413       .  A
C966        C970   1.507       .  S
C967        C972   1.416       .  A
C967        C976   1.402       .  A
C968        H984   1.107       .  S
C968        H985   1.110       .  S
C968        H986   1.110       .  S
C970        H981   1.111       .  S
C970        H982   1.110       .  S
C970        H983   1.108   1_565  S
C972        C973   1.404       .  A
C972        C977   1.509       .  S
C973        C974   1.404       .  A
C973        H978   1.084       .  S
C974        C975   1.420       .  A
C975        C976   1.404       .  A
C975        C979   1.510       .  S
C976        H980   1.083       .  S
C977        H987   1.111       .  S
C977        H988   1.108       .  S
C977        H989   1.110       .  S
C979        H990   1.107       .  S
C979        H991   1.110       .  S
C979        H992   1.111   1_556  S
C993        C994   1.400       .  A
C993        C998   1.410       .  A
C993       H1003   1.084       .  S
C994        C999   1.492       .  S
C994        C995   1.410       .  A
C995        C996   1.407       .  A
C995       C1000   1.507   1_556  S
C996        C997   1.410       .  A
C996       H1001   1.083       .  S
C997        C998   1.428       .  A
C998       C1002   1.509       .  S
C999       C1004   1.411       .  A
C999       C1008   1.405   1_556  A
C1000      H1016   1.110       .  S
C1000      H1017   1.110       .  S
C1000      H1018   1.111       .  S
C1002      H1013   1.110       .  S
C1002      H1014   1.111       .  S
C1002      H1015   1.110       .  S
C1004      C1005   1.406   1_556  A
C1004      C1009   1.506       .  S
C1005      C1006   1.407       .  A
C1005      H1010   1.084   1_554  S
C1006      C1007   1.417       .  A
C1007      C1008   1.410       .  A
C1007      C1011   1.508       .  S
C1008      H1012   1.084       .  S
C1009      H1019   1.111       .  S
C1009      H1020   1.110       .  S
C1009      H1021   1.110       .  S
C1011      H1022   1.111       .  S
C1011      H1023   1.109       .  S
C1011      H1024   1.111       .  S
C1025      C1026   1.398       .  A
C1025      C1030   1.400       .  A
C1025      H1035   1.084       .  S
C1026      C1031   1.476       .  S
C1026      C1027   1.412       .  A
C1027      C1028   1.402       .  A
C1027      C1032   1.507       .  S
C1028      C1029   1.402       .  A
C1028      H1033   1.084       .  S
C1029      C1030   1.417       .  A
C1030      C1034   1.509       .  S
C1031      C1036   1.409       .  A
C1031      C1040   1.402       .  A
C1032      H1048   1.109       .  S
C1032      H1049   1.110       .  S
C1032      H1050   1.111       .  S
C1034      H1045   1.111       .  S
C1034      H1046   1.109       .  S
C1034      H1047   1.109       .  S
C1036      C1037   1.401       .  A
C1036      C1041   1.507       .  S
C1037      C1038   1.403       .  A
C1037      H1042   1.083       .  S
C1038      C1039   1.413       .  A
C1039      C1040   1.402       .  A
C1039      C1043   1.507       .  S
C1040      H1044   1.084       .  S
C1041      H1051   1.111       .  S
C1041      H1052   1.110       .  S
C1041      H1053   1.110       .  S
C1043      H1054   1.110       .  S
C1043      H1055   1.107       .  S
C1043      H1056   1.111       .  S
C1057      C1058   1.400       .  A
C1057      C1062   1.404       .  A
C1057      H1067   1.084       .  S
C1058      C1063   1.481       .  S
C1058      C1059   1.408       .  A
C1059      C1060   1.404       .  A
C1059      C1064   1.506       .  S
C1060      C1061   1.408       .  A
C1060      H1065   1.084       .  S
C1061      C1062   1.420       .  A
C1062      C1066   1.508       .  S
C1063      C1068   1.407       .  A
C1063      C1072   1.399       .  A
C1064      H1080   1.110       .  S
C1064      H1081   1.110       .  S
C1064      H1082   1.111       .  S
C1066      H1077   1.109       .  S
C1066      H1078   1.111       .  S
C1066      H1079   1.111       .  S
C1068      C1069   1.401       .  A
C1068      C1073   1.507       .  S
C1069      C1070   1.410       .  A
C1069      H1074   1.083       .  S
C1070      C1071   1.425       .  A
C1071      C1072   1.407       .  A
C1071      C1075   1.508       .  S
C1072      H1076   1.084       .  S
C1073      H1083   1.111       .  S
C1073      H1084   1.110       .  S
C1073      H1085   1.110       .  S
C1075      H1086   1.110       .  S
C1075      H1087   1.111   1_545  S
C1075      H1088   1.111   1_545  S
C1089      C1090   1.402       .  A
C1089      C1094   1.409       .  A
C1089      H1099   1.084       .  S
C1090      C1095   1.486       .  S
C1090      C1091   1.409       .  A
C1091      C1092   1.402       .  A
C1091      C1096   1.507       .  S
C1092      C1093   1.408       .  A
C1092      H1097   1.084       .  S
C1093      C1094   1.419       .  A
C1094      C1098   1.507       .  S
C1095      C1100   1.411       .  A
C1095      C1104   1.397       .  A
C1096      H1112   1.110       .  S
C1096      H1113   1.110       .  S
C1096      H1114   1.111       .  S
C1098      H1109   1.109       .  S
C1098      H1110   1.111       .  S
C1098      H1111   1.111       .  S
C1100      C1101   1.408       .  A
C1100      C1105   1.506       .  S
C1101      C1102   1.409       .  A
C1101      H1106   1.084       .  S
C1102      C1103   1.426       .  A
C1103      C1104   1.404       .  A
C1103      C1107   1.509       .  S
C1104      H1108   1.084       .  S
C1105      H1115   1.111       .  S
C1105      H1116   1.110       .  S
C1105      H1117   1.111       .  S
C1107      H1118   1.111       .  S
C1107      H1119   1.111       .  S
C1107      H1120   1.110       .  S
C1121      C1122   1.399       .  A
C1121      C1126   1.408       .  A
C1121      H1131   1.084       .  S
C1122      C1127   1.488       .  S
C1122      C1123   1.410       .  A
C1123      C1124   1.406       .  A
C1123      C1128   1.506       .  S
C1124      C1125   1.408       .  A
C1124      H1129   1.084       .  S
C1125      C1126   1.425       .  A
C1126      C1130   1.509       .  S
C1127      C1132   1.410       .  A
C1127      C1136   1.402       .  A
C1128      H1144   1.110       .  S
C1128      H1145   1.110       .  S
C1128      H1146   1.111       .  S
C1130      H1141   1.111       .  S
C1130      H1142   1.110       .  S
C1130      H1143   1.110       .  S
C1132      C1133   1.405       .  A
C1132      C1137   1.507       .  S
C1133      C1134   1.409       .  A
C1133      H1138   1.084       .  S
C1134      C1135   1.420       .  A
C1135      C1136   1.408       .  A
C1135      C1139   1.507       .  S
C1136      H1140   1.084       .  S
C1137      H1147   1.111       .  S
C1137      H1148   1.110       .  S
C1137      H1149   1.110       .  S
C1139      H1150   1.111       .  S
C1139      H1151   1.107       .  S
C1139      H1152   1.110       .  S
C1153      C1154   1.398       .  A
C1153      C1158   1.400       .  A
C1153      H1163   1.085       .  S
C1154      C1159   1.478       .  S
C1154      C1155   1.409       .  A
C1155      C1156   1.406       .  A
C1155      C1160   1.505       .  S
C1156      C1157   1.407       .  A
C1156      H1161   1.083       .  S
C1157      C1158   1.421       .  A
C1158      C1162   1.511       .  S
C1159      C1164   1.408       .  A
C1159      C1168   1.400       .  A
C1160      H1176   1.110       .  S
C1160      H1177   1.110       .  S
C1160      H1178   1.111       .  S
C1162      H1173   1.111       .  S
C1162      H1174   1.109       .  S
C1162      H1175   1.111       .  S
C1164      C1165   1.400       .  A
C1164      C1169   1.509       .  S
C1165      C1166   1.409       .  A
C1165      H1170   1.084       .  S
C1166      C1167   1.421       .  A
C1167      C1168   1.407       .  A
C1167      C1171   1.507       .  S
C1168      H1172   1.084       .  S
C1169      H1179   1.111       .  S
C1169      H1180   1.110       .  S
C1169      H1181   1.110       .  S
C1171      H1182   1.109       .  S
C1171      H1183   1.110       .  S
C1171      H1184   1.111       .  S
C1185      C1186   1.401   1_655  A
C1185      C1190   1.401   1_655  A
C1185      H1195   1.085       .  S
C1186      C1191   1.467       .  S
C1186      C1187   1.407       .  A
C1187      C1188   1.395       .  A
C1187      C1192   1.507       .  S
C1188      C1189   1.402       .  A
C1188      H1193   1.085       .  S
C1189      C1190   1.413       .  A
C1190      C1194   1.508   1_455  S
C1191      C1196   1.406       .  A
C1191      C1200   1.396   1_455  A
C1192      H1208   1.110       .  S
C1192      H1209   1.110       .  S
C1192      H1210   1.111       .  S
C1194      H1205   1.110       .  S
C1194      H1206   1.111       .  S
C1194      H1207   1.108       .  S
C1196      C1197   1.400       .  A
C1196      C1201   1.507       .  S
C1197      C1198   1.408   1_455  A
C1197      H1202   1.084       .  S
C1198      C1199   1.421       .  A
C1199      C1200   1.398       .  A
C1199      C1203   1.509       .  S
C1200      H1204   1.085       .  S
C1201      H1211   1.111       .  S
C1201      H1212   1.110       .  S
C1201      H1213   1.110       .  S
C1203      H1214   1.111       .  S
C1203      H1215   1.108       .  S
C1203      H1216   1.110       .  S
C1217      C1218   1.401       .  A
C1217      C1222   1.407       .  A
C1217      H1227   1.084       .  S
C1218      C1223   1.492       .  S
C1218      C1219   1.412       .  A
C1219      C1220   1.408       .  A
C1219      C1224   1.507       .  S
C1220      C1221   1.409       .  A
C1220      H1225   1.084       .  S
C1221      C1222   1.423       .  A
C1222      C1226   1.509       .  S
C1223      C1228   1.412       .  A
C1223      C1232   1.401       .  A
C1224      H1240   1.109       .  S
C1224      H1241   1.110       .  S
C1224      H1242   1.111       .  S
C1226      H1237   1.111       .  S
C1226      H1238   1.109       .  S
C1226      H1239   1.111       .  S
C1228      C1229   1.409       .  A
C1228      C1233   1.506       .  S
C1229      C1230   1.409       .  A
C1229      H1234   1.084       .  S
C1230      C1231   1.422       .  A
C1231      C1232   1.406       .  A
C1231      C1235   1.509       .  S
C1232      H1236   1.084       .  S
C1233      H1243   1.111       .  S
C1233      H1244   1.109       .  S
C1233      H1245   1.111       .  S
C1235      H1246   1.109       .  S
C1235      H1247   1.111       .  S
C1235      H1248   1.111       .  S
C1249      C1250   1.403       .  A
C1249      C1254   1.407       .  A
C1249      H1259   1.084       .  S
C1250      C1255   1.487       .  S
C1250      C1251   1.409       .  A
C1251      C1252   1.405       .  A
C1251      C1256   1.506       .  S
C1252      C1253   1.408       .  A
C1252      H1257   1.084   1_655  S
C1253      C1254   1.419       .  A
C1254      C1258   1.508       .  S
C1255      C1260   1.409       .  A
C1255      C1264   1.398       .  A
C1256      H1272   1.110       .  S
C1256      H1273   1.110       .  S
C1256      H1274   1.111   1_655  S
C1258      H1269   1.110       .  S
C1258      H1270   1.111       .  S
C1258      H1271   1.107       .  S
C1260      C1261   1.406       .  A
C1260      C1265   1.506       .  S
C1261      C1262   1.411       .  A
C1261      H1266   1.083       .  S
C1262      C1263   1.428       .  A
C1263      C1264   1.408       .  A
C1263      C1267   1.509       .  S
C1264      H1268   1.084       .  S
C1265      H1275   1.111       .  S
C1265      H1276   1.110       .  S
C1265      H1277   1.110       .  S
C1267      H1278   1.109       .  S
C1267      H1279   1.110       .  S
C1267      H1280   1.111       .  S
C1281      C1282   1.404       .  A
C1281      C1286   1.407       .  A
C1281      H1291   1.084       .  S
C1282      C1287   1.489       .  S
C1282      C1283   1.412       .  A
C1283      C1284   1.404       .  A
C1283      C1288   1.508       .  S
C1284      C1285   1.405       .  A
C1284      H1289   1.084       .  S
C1285      C1286   1.417       .  A
C1286      C1290   1.507       .  S
C1287      C1292   1.413       .  A
C1287      C1296   1.405       .  A
C1288      H1304   1.109       .  S
C1288      H1305   1.110       .  S
C1288      H1306   1.111       .  S
C1290      H1301   1.110       .  S
C1290      H1302   1.111       .  S
C1290      H1303   1.108       .  S
C1292      C1293   1.402       .  A
C1292      C1297   1.508       .  S
C1293      C1294   1.403       .  A
C1293      H1298   1.084       .  S
C1294      C1295   1.414       .  A
C1295      C1296   1.407       .  A
C1295      C1299   1.506       .  S
C1296      H1300   1.084       .  S
C1297      H1307   1.111       .  S
C1297      H1308   1.109       .  S
C1297      H1309   1.110       .  S
C1299      H1310   1.111       .  S
C1299      H1311   1.108       .  S
C1299      H1312   1.110       .  S
C1313      C1314   1.402       .  A
C1313      C1318   1.400       .  A
C1313      H1323   1.084       .  S
C1314      C1319   1.469       .  S
C1314      C1315   1.407       .  A
C1315      C1316   1.396       .  A
C1315      C1320   1.507       .  S
C1316      C1317   1.402       .  A
C1316      H1321   1.082       .  S
C1317      C1318   1.414       .  A
C1318      C1322   1.508       .  S
C1319      C1324   1.411       .  A
C1319      C1328   1.397       .  A
C1320      H1336   1.109       .  S
C1320      H1337   1.111       .  S
C1320      H1338   1.111       .  S
C1322      H1333   1.110       .  S
C1322      H1334   1.110       .  S
C1322      H1335   1.108       .  S
C1324      C1325   1.401       .  A
C1324      C1329   1.506       .  S
C1325      C1326   1.402       .  A
C1325      H1330   1.084       .  S
C1326      C1327   1.414       .  A
C1327      C1328   1.396       .  A
C1327      C1331   1.508       .  S
C1328      H1332   1.084       .  S
C1329      H1339   1.111       .  S
C1329      H1340   1.110       .  S
C1329      H1341   1.110       .  S
C1331      H1342   1.108       .  S
C1331      H1343   1.110       .  S
C1331      H1344   1.111       .  S
C1345      C1346   1.401       .  A
C1345      C1350   1.410       .  A
C1345      H1355   1.084       .  S
C1346      C1351   1.495       .  S
C1346      C1347   1.411       .  A
C1347      C1348   1.409       .  A
C1347      C1352   1.506       .  S
C1348      C1349   1.411       .  A
C1348      H1353   1.083       .  S
C1349      C1350   1.426       .  A
C1350      C1354   1.508       .  S
C1351      C1356   1.411       .  A
C1351      C1360   1.404       .  A
C1352      H1368   1.109       .  S
C1352      H1369   1.110       .  S
C1352      H1370   1.111       .  S
C1354      H1365   1.111       .  S
C1354      H1366   1.110       .  S
C1354      H1367   1.110       .  S
C1356      C1357   1.409       .  A
C1356      C1361   1.506       .  S
C1357      C1358   1.410       .  A
C1357      H1362   1.084       .  S
C1358      C1359   1.420       .  A
C1359      C1360   1.410       .  A
C1359      C1363   1.507       .  S
C1360      H1364   1.084       .  S
C1361      H1371   1.111       .  S
C1361      H1372   1.110       .  S
C1361      H1373   1.110       .  S
C1363      H1374   1.110       .  S
C1363      H1375   1.109       .  S
C1363      H1376   1.111       .  S
C1377      C1378   1.399       .  A
C1377      C1382   1.402       .  A
C1377      H1387   1.084       .  S
C1378      C1383   1.477       .  S
C1378      C1379   1.411       .  A
C1379      C1380   1.402       .  A
C1379      C1384   1.507       .  S
C1380      C1381   1.403       .  A
C1380      H1385   1.084       .  S
C1381      C1382   1.417       .  A
C1382      C1386   1.508       .  S
C1383      C1388   1.408       .  A
C1383      C1392   1.402       .  A
C1384      H1400   1.110       .  S
C1384      H1401   1.111       .  S
C1384      H1402   1.111       .  S
C1386      H1397   1.111       .  S
C1386      H1398   1.110       .  S
C1386      H1399   1.110       .  S
C1388      C1389   1.402       .  A
C1388      C1393   1.506       .  S
C1389      C1390   1.404       .  A
C1389      H1394   1.083       .  S
C1390      C1391   1.414       .  A
C1391      C1392   1.401       .  A
C1391      C1395   1.507       .  S
C1392      H1396   1.085       .  S
C1393      H1403   1.111       .  S
C1393      H1404   1.110       .  S
C1393      H1405   1.110       .  S
C1395      H1406   1.110       .  S
C1395      H1407   1.108   1_565  S
C1395      H1408   1.110       .  S
C1409      C1410   1.398       .  A
C1409      C1414   1.401       .  A
C1409      H1419   1.084       .  S
C1410      C1415   1.473       .  S
C1410      C1411   1.409       .  A
C1411      C1412   1.402       .  A
C1411      C1416   1.508       .  S
C1412      C1413   1.406       .  A
C1412      H1417   1.084       .  S
C1413      C1414   1.420       .  A
C1414      C1418   1.508       .  S
C1415      C1420   1.411       .  A
C1415      C1424   1.395       .  A
C1416      H1432   1.111       .  S
C1416      H1433   1.109       .  S
C1416      H1434   1.111       .  S
C1418      H1429   1.111       .  S
C1418      H1430   1.110       .  S
C1418      H1431   1.107       .  S
C1420      C1421   1.404       .  A
C1420      C1425   1.507       .  S
C1421      C1422   1.403       .  A
C1421      H1426   1.085       .  S
C1422      C1423   1.422       .  A
C1423      C1424   1.397       .  A
C1423      C1427   1.511       .  S
C1424      H1428   1.085       .  S
C1425      H1435   1.111       .  S
C1425      H1436   1.110       .  S
C1425      H1437   1.109       .  S
C1427      H1438   1.110       .  S
C1427      H1439   1.103       .  S
C1427      H1440   1.111       .  S
C1441      C1442   1.401       .  A
C1441      C1446   1.403       .  A
C1441      H1451   1.084       .  S
C1442      C1447   1.485       .  S
C1442      C1443   1.411       .  A
C1443      C1444   1.407       .  A
C1443      C1448   1.506       .  S
C1444      C1445   1.405       .  A
C1444      H1449   1.084       .  S
C1445      C1446   1.417       .  A
C1446      C1450   1.508       .  S
C1447      C1452   1.409       .  A
C1447      C1456   1.401       .  A
C1448      H1464   1.110       .  S
C1448      H1465   1.110       .  S
C1448      H1466   1.111       .  S
C1450      H1461   1.110       .  S
C1450      H1462   1.111       .  S
C1450      H1463   1.107       .  S
C1452      C1453   1.403       .  A
C1452      C1457   1.507       .  S
C1453      C1454   1.408       .  A
C1453      H1458   1.084       .  S
C1454      C1455   1.421       .  A
C1455      C1456   1.409       .  A
C1455      C1459   1.507       .  S
C1456      H1460   1.084       .  S
C1457      H1467   1.111       .  S
C1457      H1468   1.110       .  S
C1457      H1469   1.110       .  S
C1459      H1470   1.109   1_545  S
C1459      H1471   1.109       .  S
C1459      H1472   1.111   1_545  S
C1473      C1474   1.399       .  A
C1473      C1478   1.407       .  A
C1473      H1483   1.084       .  S
C1474      C1479   1.486       .  S
C1474      C1475   1.409       .  A
C1475      C1476   1.405       .  A
C1475      C1480   1.506       .  S
C1476      C1477   1.409       .  A
C1476      H1481   1.083       .  S
C1477      C1478   1.425       .  A
C1478      C1482   1.508       .  S
C1479      C1484   1.409       .  A
C1479      C1488   1.404       .  A
C1480      H1496   1.110       .  S
C1480      H1497   1.110       .  S
C1480      H1498   1.111       .  S
C1482      H1493   1.110       .  S
C1482      H1494   1.111       .  S
C1482      H1495   1.110       .  S
C1484      C1485   1.403       .  A
C1484      C1489   1.507       .  S
C1485      C1486   1.408       .  A
C1485      H1490   1.082       .  S
C1486      C1487   1.416       .  A
C1487      C1488   1.409       .  A
C1487      C1491   1.506       .  S
C1488      H1492   1.084       .  S
C1489      H1499   1.111       .  S
C1489      H1500   1.110       .  S
C1489      H1501   1.110       .  S
C1491      H1502   1.110       .  S
C1491      H1503   1.109       .  S
C1491      H1504   1.111       .  S
C1505      C1506   1.397       .  A
C1505      C1510   1.400       .  A
C1505      H1515   1.085       .  S
C1506      C1511   1.473       .  S
C1506      C1507   1.407       .  A
C1507      C1508   1.401       .  A
C1507      C1512   1.507       .  S
C1508      C1509   1.408       .  A
C1508      H1513   1.084       .  S
C1509      C1510   1.421       .  A
C1510      C1514   1.509       .  S
C1511      C1516   1.407       .  A
C1511      C1520   1.403       .  A
C1512      H1528   1.110       .  S
C1512      H1529   1.111       .  S
C1512      H1530   1.111       .  S
C1514      H1525   1.110       .  S
C1514      H1526   1.111       .  S
C1514      H1527   1.110       .  S
C1516      C1517   1.396       .  A
C1516      C1521   1.507       .  S
C1517      C1518   1.403       .  A
C1517      H1522   1.085       .  S
C1518      C1519   1.414       .  A
C1519      C1520   1.404       .  A
C1519      C1523   1.507       .  S
C1520      H1524   1.084       .  S
C1521      H1531   1.111       .  S
C1521      H1532   1.110       .  S
C1521      H1533   1.110       .  S
C1523      H1534   1.111       .  S
C1523      H1535   1.107       .  S
C1523      H1536   1.110       .  S
C1537      C1538   1.398       .  A
C1537      C1542   1.407       .  A
C1537      H1547   1.084       .  S
C1538      C1543   1.487       .  S
C1538      C1539   1.410       .  A
C1539      C1540   1.406       .  A
C1539      C1544   1.506       .  S
C1540      C1541   1.410       .  A
C1540      H1545   1.083       .  S
C1541      C1542   1.426       .  A
C1542      C1546   1.509       .  S
C1543      C1548   1.410       .  A
C1543      C1552   1.403       .  A
C1544      H1560   1.110       .  S
C1544      H1561   1.110       .  S
C1544      H1562   1.111       .  S
C1546      H1557   1.110       .  S
C1546      H1558   1.111       .  S
C1546      H1559   1.110       .  S
C1548      C1549   1.404       .  A
C1548      C1553   1.507       .  S
C1549      C1550   1.409       .  A
C1549      H1554   1.084       .  S
C1550      C1551   1.418       .  A
C1551      C1552   1.408       .  A
C1551      C1555   1.507       .  S
C1552      H1556   1.084       .  S
C1553      H1563   1.111       .  S
C1553      H1564   1.110       .  S
C1553      H1565   1.110       .  S
C1555      H1566   1.111       .  S
C1555      H1567   1.107       .  S
C1555      H1568   1.110       .  S
C1569      C1570   1.399       .  A
C1569      C1574   1.400       .  A
C1569      H1579   1.085       .  S
C1570      C1575   1.485       .  S
C1570      C1571   1.412       .  A
C1571      C1572   1.411       .  A
C1571      C1576   1.504       .  S
C1572      C1573   1.406       .  A
C1572      H1577   1.084       .  S
C1573      C1574   1.417       .  A
C1574      C1578   1.511       .  S
C1575      C1580   1.408       .  A
C1575      C1584   1.400       .  A
C1576      H1592   1.110       .  S
C1576      H1593   1.110       .  S
C1576      H1594   1.111       .  S
C1578      H1589   1.111       .  S
C1578      H1590   1.110       .  S
C1578      H1591   1.107       .  S
C1580      C1581   1.404       .  A
C1580      C1585   1.507       .  S
C1581      C1582   1.412       .  A
C1581      H1586   1.084       .  S
C1582      C1583   1.425       .  A
C1583      C1584   1.409       .  A
C1583      C1587   1.508       .  S
C1584      H1588   1.084       .  S
C1585      H1595   1.111       .  S
C1585      H1596   1.110       .  S
C1585      H1597   1.110       .  S
C1587      H1598   1.110       .  S
C1587      H1599   1.110       .  S
C1587      H1600   1.111       .  S
C1601      C1602   1.402       .  A
C1601      C1606   1.404       .  A
C1601      H1611   1.084       .  S
C1602      C1607   1.470   1_556  S
C1602      C1603   1.408       .  A
C1603      C1604   1.393       .  A
C1603      C1608   1.509   1_556  S
C1604      C1605   1.403       .  A
C1604      H1609   1.085       .  S
C1605      C1606   1.416       .  A
C1606      C1610   1.508       .  S
C1607      C1612   1.408   1_554  A
C1607      C1616   1.397       .  A
C1608      H1624   1.109       .  S
C1608      H1625   1.110       .  S
C1608      H1626   1.111       .  S
C1610      H1621   1.111       .  S
C1610      H1622   1.110       .  S
C1610      H1623   1.109       .  S
C1612      C1613   1.401   1_556  A
C1612      C1617   1.506       .  S
C1613      C1614   1.405       .  A
C1613      H1618   1.084   1_554  S
C1614      C1615   1.419       .  A
C1615      C1616   1.397       .  A
C1615      C1619   1.510       .  S
C1616      H1620   1.084       .  S
C1617      H1627   1.111       .  S
C1617      H1628   1.110       .  S
C1617      H1629   1.110       .  S
C1619      H1630   1.111       .  S
C1619      H1631   1.108       .  S
C1619      H1632   1.110       .  S
C1633      C1634   1.403       .  A
C1633      C1638   1.408       .  A
C1633      H1643   1.084       .  S
C1634      C1639   1.485       .  S
C1634      C1635   1.410       .  A
C1635      C1636   1.403       .  A
C1635      C1640   1.507       .  S
C1636      C1637   1.407       .  A
C1636      H1641   1.084       .  S
C1637      C1638   1.417       .  A
C1638      C1642   1.507       .  S
C1639      C1644   1.408       .  A
C1639      C1648   1.399       .  A
C1640      H1656   1.110       .  S
C1640      H1657   1.110       .  S
C1640      H1658   1.111       .  S
C1642      H1653   1.111       .  S
C1642      H1654   1.110       .  S
C1642      H1655   1.111       .  S
C1644      C1645   1.403       .  A
C1644      C1649   1.507       .  S
C1645      C1646   1.412       .  A
C1645      H1650   1.083       .  S
C1646      C1647   1.426       .  A
C1647      C1648   1.409       .  A
C1647      C1651   1.508       .  S
C1648      H1652   1.084       .  S
C1649      H1659   1.111       .  S
C1649      H1660   1.110       .  S
C1649      H1661   1.110       .  S
C1651      H1662   1.110       .  S
C1651      H1663   1.110       .  S
C1651      H1664   1.111       .  S
C1665      C1666   1.403   1_554  A
C1665      C1670   1.405       .  A
C1665      H1675   1.084       .  S
C1666      C1671   1.487       .  S
C1666      C1667   1.410       .  A
C1667      C1668   1.406   1_556  A
C1667      C1672   1.506       .  S
C1668      C1669   1.407       .  A
C1668      H1673   1.084   1_554  S
C1669      C1670   1.416       .  A
C1670      C1674   1.508       .  S
C1671      C1676   1.409       .  A
C1671      C1680   1.398       .  A
C1672      H1688   1.110       .  S
C1672      H1689   1.110       .  S
C1672      H1690   1.111       .  S
C1674      H1685   1.111       .  S
C1674      H1686   1.111       .  S
C1674      H1687   1.109       .  S
C1676      C1677   1.405       .  A
C1676      C1681   1.507   1_556  S
C1677      C1678   1.410       .  A
C1677      H1682   1.083       .  S
C1678      C1679   1.427       .  A
C1679      C1680   1.407       .  A
C1679      C1683   1.509       .  S
C1680      H1684   1.084       .  S
C1681      H1691   1.111       .  S
C1681      H1692   1.109       .  S
C1681      H1693   1.110   1_554  S
C1683      H1694   1.110       .  S
C1683      H1695   1.110       .  S
C1683      H1696   1.111       .  S
C1697      C1698   1.400       .  A
C1697      C1702   1.397       .  A
C1697      H1707   1.085       .  S
C1698      C1703   1.480       .  S
C1698      C1699   1.412       .  A
C1699      C1700   1.407       .  A
C1699      C1704   1.505       .  S
C1700      C1701   1.403       .  A
C1700      H1705   1.084       .  S
C1701      C1702   1.414       .  A
C1702      C1706   1.510       .  S
C1703      C1708   1.408       .  A
C1703      C1712   1.400       .  A
C1704      H1720   1.110       .  S
C1704      H1721   1.110       .  S
C1704      H1722   1.111       .  S
C1706      H1717   1.111       .  S
C1706      H1718   1.110       .  S
C1706      H1719   1.107       .  S
C1708      C1709   1.401       .  A
C1708      C1713   1.508       .  S
C1709      C1710   1.410       .  A
C1709      H1714   1.084       .  S
C1710      C1711   1.423       .  A
C1711      C1712   1.406       .  A
C1711      C1715   1.508       .  S
C1712      H1716   1.084       .  S
C1713      H1723   1.111       .  S
C1713      H1724   1.110       .  S
C1713      H1725   1.110       .  S
C1715      H1726   1.110       .  S
C1715      H1727   1.110       .  S
C1715      H1728   1.111       .  S
C1729      C1730   1.403       .  A
C1729      C1734   1.408       .  A
C1729      H1739   1.084       .  S
C1730      C1735   1.484       .  S
C1730      C1731   1.409       .  A
C1731      C1732   1.403       .  A
C1731      C1736   1.508       .  S
C1732      C1733   1.409       .  A
C1732      H1737   1.084       .  S
C1733      C1734   1.418       .  A
C1734      C1738   1.507       .  S
C1735      C1740   1.408       .  A
C1735      C1744   1.403   1_554  A
C1736      H1752   1.110       .  S
C1736      H1753   1.109       .  S
C1736      H1754   1.111       .  S
C1738      H1749   1.111       .  S
C1738      H1750   1.109       .  S
C1738      H1751   1.110       .  S
C1740      C1741   1.402   1_554  A
C1740      C1745   1.507       .  S
C1741      C1742   1.409       .  A
C1741      H1746   1.084   1_556  S
C1742      C1743   1.420       .  A
C1743      C1744   1.409       .  A
C1743      C1747   1.507       .  S
C1744      H1748   1.084       .  S
C1745      H1755   1.111       .  S
C1745      H1756   1.110       .  S
C1745      H1757   1.109       .  S
C1747      H1758   1.109       .  S
C1747      H1759   1.110       .  S
C1747      H1760   1.111       .  S
C1761      C1762   1.400       .  A
C1761      C1766   1.406       .  A
C1761      H1771   1.085       .  S
C1762      C1767   1.483       .  S
C1762      C1763   1.411       .  A
C1763      C1764   1.404       .  A
C1763      C1768   1.507       .  S
C1764      C1765   1.406       .  A
C1764      H1769   1.084       .  S
C1765      C1766   1.421       .  A
C1766      C1770   1.509       .  S
C1767      C1772   1.412       .  A
C1767      C1776   1.401       .  A
C1768      H1784   1.109       .  S
C1768      H1785   1.110       .  S
C1768      H1786   1.111       .  S
C1770      H1781   1.110       .  S
C1770      H1782   1.111       .  S
C1770      H1783   1.108       .  S
C1772      C1773   1.409       .  A
C1772      C1777   1.505       .  S
C1773      C1774   1.404       .  A
C1773      H1778   1.084       .  S
C1774      C1775   1.415       .  A
C1775      C1776   1.399       .  A
C1775      C1779   1.510       .  S
C1776      H1780   1.085       .  S
C1777      H1787   1.111       .  S
C1777      H1788   1.110       .  S
C1777      H1789   1.110       .  S
C1779      H1790   1.110       .  S
C1779      H1791   1.108       .  S
C1779      H1792   1.110       .  S
C1793      C1794   1.400       .  A
C1793      C1798   1.409       .  A
C1793      H1803   1.084       .  S
C1794      C1799   1.485       .  S
C1794      C1795   1.408       .  A
C1795      C1796   1.403       .  A
C1795      C1800   1.507       .  S
C1796      C1797   1.411       .  A
C1796      H1801   1.083       .  S
C1797      C1798   1.426       .  A
C1798      C1802   1.508       .  S
C1799      C1804   1.409       .  A
C1799      C1808   1.399       .  A
C1800      H1816   1.110       .  S
C1800      H1817   1.110       .  S
C1800      H1818   1.111       .  S
C1802      H1813   1.110       .  S
C1802      H1814   1.111       .  S
C1802      H1815   1.110       .  S
C1804      C1805   1.406       .  A
C1804      C1809   1.506       .  S
C1805      C1806   1.409       .  A
C1805      H1810   1.084       .  S
C1806      C1807   1.423       .  A
C1807      C1808   1.405       .  A
C1807      C1811   1.509       .  S
C1808      H1812   1.084       .  S
C1809      H1819   1.111       .  S
C1809      H1820   1.110       .  S
C1809      H1821   1.110       .  S
C1811      H1822   1.111       .  S
C1811      H1823   1.110       .  S
C1811      H1824   1.111       .  S
C1825      C1826   1.397       .  A
C1825      C1830   1.404       .  A
C1825      H1835   1.085       .  S
C1826      C1831   1.483       .  S
C1826      C1827   1.409       .  A
C1827      C1828   1.406       .  A
C1827      C1832   1.506       .  S
C1828      C1829   1.410       .  A
C1828      H1833   1.084       .  S
C1829      C1830   1.425       .  A
C1830      C1834   1.508       .  S
C1831      C1836   1.412       .  A
C1831      C1840   1.397       .  A
C1832      H1848   1.110       .  S
C1832      H1849   1.110       .  S
C1832      H1850   1.111       .  S
C1834      H1845   1.109       .  S
C1834      H1846   1.111       .  S
C1834      H1847   1.110       .  S
C1836      C1837   1.408       .  A
C1836      C1841   1.506       .  S
C1837      C1838   1.405       .  A
C1837      H1842   1.083       .  S
C1838      C1839   1.421       .  A
C1839      C1840   1.402       .  A
C1839      C1843   1.509       .  S
C1840      H1844   1.084       .  S
C1841      H1851   1.111       .  S
C1841      H1852   1.110       .  S
C1841      H1853   1.110       .  S
C1843      H1854   1.110       .  S
C1843      H1855   1.105       .  S
C1843      H1856   1.111       .  S
C1857      C1858   1.398       .  A
C1857      C1862   1.404       .  A
C1857      H1867   1.084       .  S
C1858      C1863   1.479       .  S
C1858      C1859   1.407       .  A
C1859      C1860   1.403       .  A
C1859      C1864   1.507       .  S
C1860      C1861   1.411       .  A
C1860      H1865   1.083       .  S
C1861      C1862   1.426       .  A
C1862      C1866   1.509       .  S
C1863      C1868   1.410       .  A
C1863      C1872   1.399       .  A
C1864      H1880   1.110       .  S
C1864      H1881   1.110       .  S
C1864      H1882   1.111       .  S
C1866      H1877   1.110       .  S
C1866      H1878   1.111       .  S
C1866      H1879   1.110       .  S
C1868      C1869   1.406       .  A
C1868      C1873   1.505       .  S
C1869      C1870   1.406       .  A
C1869      H1874   1.084       .  S
C1870      C1871   1.417       .  A
C1871      C1872   1.399       .  A
C1871      C1875   1.510       .  S
C1872      H1876   1.085       .  S
C1873      H1883   1.111       .  S
C1873      H1884   1.110       .  S
C1873      H1885   1.110       .  S
C1875      H1886   1.111       .  S
C1875      H1887   1.110       .  S
C1875      H1888   1.109       .  S
C1889      C1890   1.397       .  A
C1889      C1894   1.398       .  A
C1889      H1899   1.084       .  S
C1890      C1895   1.471       .  S
C1890      C1891   1.411       .  A
C1891      C1892   1.400       .  A
C1891      C1896   1.508       .  S
C1892      C1893   1.402       .  A
C1892      H1897   1.084       .  S
C1893      C1894   1.418       .  A
C1894      C1898   1.509       .  S
C1895      C1900   1.411       .  A
C1895      C1904   1.398       .  A
C1896      H1912   1.110       .  S
C1896      H1913   1.108       .  S
C1896      H1914   1.111       .  S
C1898      H1909   1.111       .  S
C1898      H1910   1.110       .  S
C1898      H1911   1.103       .  S
C1900      C1901   1.400       .  A
C1900      C1905   1.508       .  S
C1901      C1902   1.402       .  A
C1901      H1906   1.084       .  S
C1902      C1903   1.416       .  A
C1903      C1904   1.400       .  A
C1903      C1907   1.509       .  S
C1904      H1908   1.084       .  S
C1905      H1915   1.111       .  S
C1905      H1916   1.110       .  S
C1905      H1917   1.108       .  S
C1907      H1918   1.111       .  S
C1907      H1919   1.110       .  S
C1907      H1920   1.110       .  S
C1921      C1922   1.403       .  A
C1921      C1926   1.410       .  A
C1921      H1931   1.084       .  S
C1922      C1927   1.488       .  S
C1922      C1923   1.409       .  A
C1923      C1924   1.404       .  A
C1923      C1928   1.507       .  S
C1924      C1925   1.409       .  A
C1924      H1929   1.084       .  S
C1925      C1926   1.418       .  A
C1926      C1930   1.507       .  S
C1927      C1932   1.409       .  A
C1927      C1936   1.402       .  A
C1928      H1944   1.110       .  S
C1928      H1945   1.110       .  S
C1928      H1946   1.111       .  S
C1930      H1941   1.110       .  S
C1930      H1942   1.111       .  S
C1930      H1943   1.109       .  S
C1932      C1933   1.407       .  A
C1932      C1937   1.506       .  S
C1933      C1934   1.411       .  A
C1933      H1938   1.084       .  S
C1934      C1935   1.419       .  A
C1935      C1936   1.408       .  A
C1935      C1939   1.506       .  S
C1936      H1940   1.084       .  S
C1937      H1947   1.111       .  S
C1937      H1948   1.110       .  S
C1937      H1949   1.110       .  S
C1939      H1950   1.111       .  S
C1939      H1951   1.109       .  S
C1939      H1952   1.109       .  S
C1953      C1954   1.403       .  A
C1953      C1958   1.403       .  A
C1953      H1963   1.084       .  S
C1954      C1959   1.477       .  S
C1954      C1955   1.409       .  A
C1955      C1956   1.401       .  A
C1955      C1960   1.506       .  S
C1956      C1957   1.402       .  A
C1956      H1961   1.085       .  S
C1957      C1958   1.411       .  A
C1958      C1962   1.507       .  S
C1959      C1964   1.409       .  A
C1959      C1968   1.400       .  A
C1960      H1976   1.110       .  S
C1960      H1977   1.110       .  S
C1960      H1978   1.111       .  S
C1962      H1973   1.110       .  S
C1962      H1974   1.110       .  S
C1962      H1975   1.109   1_545  S
C1964      C1965   1.403       .  A
C1964      C1969   1.506       .  S
C1965      C1966   1.404       .  A
C1965      H1970   1.085       .  S
C1966      C1967   1.416       .  A
C1967      C1968   1.402       .  A
C1967      C1971   1.508       .  S
C1968      H1972   1.085       .  S
C1969      H1979   1.111       .  S
C1969      H1980   1.110       .  S
C1969      H1981   1.110       .  S
C1971      H1982   1.110       .  S
C1971      H1983   1.108       .  S
C1971      H1984   1.111       .  S
C1985      C1986   1.396       .  A
C1985      C1990   1.396       .  A
C1985      H1995   1.085       .  S
C1986      C1991   1.471       .  S
C1986      C1987   1.410       .  A
C1987      C1988   1.403       .  A
C1987      C1992   1.507       .  S
C1988      C1989   1.405       .  A
C1988      H1993   1.085       .  S
C1989      C1990   1.418       .  A
C1990      C1994   1.508       .  S
C1991      C1996   1.409       .  A
C1991      C2000   1.396       .  A
C1992      H2008   1.110       .  S
C1992      H2009   1.108       .  S
C1992      H2010   1.111       .  S
C1994      H2005   1.110       .  S
C1994      H2006   1.110       .  S
C1994      H2007   1.101       .  S
C1996      C1997   1.403       .  A
C1996      C2001   1.507       .  S
C1997      C1998   1.407       .  A
C1997      H2002   1.084       .  S
C1998      C1999   1.423       .  A
C1999      C2000   1.398       .  A
C1999      C2003   1.511       .  S
C2000      H2004   1.085       .  S
C2001      H2011   1.111       .  S
C2001      H2012   1.110       .  S
C2001      H2013   1.108       .  S
C2003      H2014   1.110       .  S
C2003      H2015   1.109       .  S
C2003      H2016   1.111       .  S
C2017      C2018   1.399       .  A
C2017      C2022   1.408       .  A
C2017      H2027   1.084       .  S
C2018      C2023   1.483       .  S
C2018      C2019   1.408       .  A
C2019      C2020   1.402       .  A
C2019      C2024   1.507       .  S
C2020      C2021   1.410       .  A
C2020      H2025   1.083       .  S
C2021      C2022   1.424       .  A
C2022      C2026   1.508       .  S
C2023      C2028   1.407       .  A
C2023      C2032   1.399       .  A
C2024      H2040   1.110       .  S
C2024      H2041   1.110       .  S
C2024      H2042   1.111       .  S
C2026      H2037   1.111   1_565  S
C2026      H2038   1.110   1_565  S
C2026      H2039   1.110       .  S
C2028      C2029   1.402       .  A
C2028      C2033   1.507       .  S
C2029      C2030   1.412       .  A
C2029      H2034   1.083       .  S
C2030      C2031   1.425       .  A
C2031      C2032   1.408       .  A
C2031      C2035   1.508       .  S
C2032      H2036   1.084       .  S
C2033      H2043   1.111       .  S
C2033      H2044   1.110       .  S
C2033      H2045   1.110       .  S
C2035      H2046   1.110   1_565  S
C2035      H2047   1.110       .  S
C2035      H2048   1.111   1_565  S
C2049      C2050   1.400       .  A
C2049      C2054   1.407       .  A
C2049      H2059   1.084       .  S
C2050      C2055   1.489       .  S
C2050      C2051   1.414       .  A
C2051      C2052   1.408       .  A
C2051      C2056   1.507       .  S
C2052      C2053   1.404       .  A
C2052      H2057   1.083       .  S
C2053      C2054   1.420       .  A
C2054      C2058   1.508       .  S
C2055      C2060   1.410       .  A
C2055      C2064   1.398       .  A
C2056      H2072   1.109       .  S
C2056      H2073   1.108       .  S
C2056      H2074   1.111       .  S
C2058      H2069   1.109       .  S
C2058      H2070   1.111       .  S
C2058      H2071   1.109       .  S
C2060      C2061   1.408       .  A
C2060      C2065   1.507       .  S
C2061      C2062   1.411       .  A
C2061      H2066   1.084       .  S
C2062      C2063   1.428       .  A
C2063      C2064   1.407       .  A
C2063      C2067   1.509       .  S
C2064      H2068   1.084       .  S
C2065      H2075   1.111       .  S
C2065      H2076   1.110       .  S
C2065      H2077   1.109       .  S
C2067      H2078   1.110       .  S
C2067      H2079   1.110       .  S
C2067      H2080   1.111       .  S
C2081      C2082   1.401       .  A
C2081      C2086   1.401       .  A
C2081      H2091   1.084       .  S
C2082      C2087   1.467       .  S
C2082      C2083   1.407       .  A
C2083      C2084   1.394       .  A
C2083      C2088   1.508       .  S
C2084      C2085   1.404       .  A
C2084      H2089   1.085       .  S
C2085      C2086   1.415       .  A
C2086      C2090   1.508       .  S
C2087      C2092   1.407       .  A
C2087      C2096   1.402       .  A
C2088      H2104   1.110       .  S
C2088      H2105   1.110       .  S
C2088      H2106   1.111       .  S
C2090      H2101   1.111       .  S
C2090      H2102   1.110       .  S
C2090      H2103   1.107       .  S
C2092      C2093   1.394       .  A
C2092      C2097   1.508       .  S
C2093      C2094   1.403       .  A
C2093      H2098   1.085       .  S
C2094      C2095   1.412       .  A
C2095      C2096   1.401       .  A
C2095      C2099   1.507       .  S
C2096      H2100   1.084       .  S
C2097      H2107   1.111       .  S
C2097      H2108   1.110       .  S
C2097      H2109   1.110       .  S
C2099      H2110   1.110       .  S
C2099      H2111   1.108       .  S
C2099      H2112   1.111       .  S
C2113      C2114   1.397       .  A
C2113      C2118   1.403       .  A
C2113      H2123   1.084       .  S
C2114      C2119   1.482       .  S
C2114      C2115   1.409       .  A
C2115      C2116   1.407       .  A
C2115      C2120   1.507       .  S
C2116      C2117   1.410       .  A
C2116      H2121   1.084       .  S
C2117      C2118   1.424       .  A
C2118      C2122   1.509       .  S
C2119      C2124   1.412       .  A
C2119      C2128   1.398       .  A
C2120      H2136   1.110       .  S
C2120      H2137   1.108       .  S
C2120      H2138   1.111       .  S
C2122      H2133   1.108       .  S
C2122      H2134   1.111       .  S
C2122      H2135   1.110       .  S
C2124      C2125   1.406       .  A
C2124      C2129   1.508       .  S
C2125      C2126   1.407       .  A
C2125      H2130   1.084       .  S
C2126      C2127   1.423       .  A
C2127      C2128   1.404       .  A
C2127      C2131   1.509       .  S
C2128      H2132   1.085       .  S
C2129      H2139   1.111       .  S
C2129      H2140   1.110       .  S
C2129      H2141   1.108       .  S
C2131      H2142   1.110       .  S
C2131      H2143   1.109       .  S
C2131      H2144   1.111       .  S
C2145      C2146   1.402       .  A
C2145      C2150   1.409       .  A
C2145      H2155   1.084       .  S
C2146      C2151   1.490       .  S
C2146      C2147   1.410       .  A
C2147      C2148   1.405       .  A
C2147      C2152   1.508       .  S
C2148      C2149   1.410       .  A
C2148      H2153   1.084       .  S
C2149      C2150   1.422       .  A
C2150      C2154   1.507       .  S
C2151      C2156   1.410       .  A
C2151      C2160   1.402       .  A
C2152      H2168   1.110       .  S
C2152      H2169   1.110       .  S
C2152      H2170   1.111       .  S
C2154      H2165   1.109       .  S
C2154      H2166   1.111       .  S
C2154      H2167   1.111       .  S
C2156      C2157   1.402       .  A
C2156      C2161   1.508       .  S
C2157      C2158   1.408       .  A
C2157      H2162   1.082       .  S
C2158      C2159   1.423       .  A
C2159      C2160   1.411       .  A
C2159      C2163   1.507       .  S
C2160      H2164   1.084       .  S
C2161      H2171   1.111       .  S
C2161      H2172   1.110       .  S
C2161      H2173   1.110       .  S
C2163      H2174   1.111       .  S
C2163      H2175   1.110       .  S
C2163      H2176   1.109       .  S
C2177      C2178   1.400       .  A
C2177      C2182   1.406       .  A
C2177      H2187   1.084       .  S
C2178      C2183   1.484       .  S
C2178      C2179   1.409       .  A
C2179      C2180   1.405       .  A
C2179      C2184   1.506       .  S
C2180      C2181   1.408       .  A
C2180      H2185   1.084       .  S
C2181      C2182   1.421       .  A
C2182      C2186   1.508       .  S
C2183      C2188   1.407       .  A
C2183      C2192   1.400       .  A
C2184      H2200   1.110       .  S
C2184      H2201   1.110       .  S
C2184      H2202   1.111       .  S
C2186      H2197   1.111       .  S
C2186      H2198   1.111       .  S
C2186      H2199   1.109       .  S
C2188      C2189   1.402       .  A
C2188      C2193   1.507       .  S
C2189      C2190   1.412       .  A
C2189      H2194   1.083       .  S
C2190      C2191   1.425       .  A
C2191      C2192   1.409       .  A
C2191      C2195   1.508       .  S
C2192      H2196   1.084       .  S
C2193      H2203   1.111       .  S
C2193      H2204   1.110       .  S
C2193      H2205   1.110       .  S
C2195      H2206   1.111       .  S
C2195      H2207   1.110       .  S
C2195      H2208   1.110       .  S
C2209      C2210   1.401       .  A
C2209      C2214   1.409       .  A
C2209      H2219   1.084       .  S
C2210      C2215   1.488       .  S
C2210      C2211   1.409       .  A
C2211      C2212   1.406       .  A
C2211      C2216   1.507       .  S
C2212      C2213   1.411       .  A
C2212      H2217   1.082       .  S
C2213      C2214   1.424       .  A
C2214      C2218   1.508       .  S
C2215      C2220   1.411       .  A
C2215      C2224   1.403       .  A
C2216      H2232   1.110       .  S
C2216      H2233   1.109       .  S
C2216      H2234   1.111       .  S
C2218      H2229   1.110       .  S
C2218      H2230   1.111       .  S
C2218      H2231   1.109       .  S
C2220      C2221   1.408   1_455  A
C2220      C2225   1.506   1_455  S
C2221      C2222   1.408   1_655  A
C2221      H2226   1.084       .  S
C2222      C2223   1.415       .  A
C2223      C2224   1.406       .  A
C2223      C2227   1.506       .  S
C2224      H2228   1.084       .  S
C2225      H2235   1.111       .  S
C2225      H2236   1.110       .  S
C2225      H2237   1.109   1_655  S
C2227      H2238   1.109       .  S
C2227      H2239   1.109       .  S
C2227      H2240   1.111       .  S
C2241      C2242   1.402       .  A
C2241      C2246   1.408       .  A
C2241      H2251   1.084       .  S
C2242      C2247   1.486       .  S
C2242      C2243   1.410       .  A
C2243      C2244   1.401       .  A
C2243      C2248   1.509       .  S
C2244      C2245   1.409       .  A
C2244      H2249   1.082       .  S
C2245      C2246   1.422       .  A
C2246      C2250   1.507       .  S
C2247      C2252   1.409       .  A
C2247      C2256   1.403       .  A
C2248      H2264   1.109       .  S
C2248      H2265   1.110       .  S
C2248      H2266   1.111       .  S
C2250      H2261   1.110       .  S
C2250      H2262   1.111       .  S
C2250      H2263   1.110       .  S
C2252      C2253   1.400       .  A
C2252      C2257   1.509       .  S
C2253      C2254   1.410       .  A
C2253      H2258   1.080       .  S
C2254      C2255   1.421       .  A
C2255      C2256   1.409       .  A
C2255      C2259   1.507       .  S
C2256      H2260   1.084       .  S
C2257      H2267   1.111       .  S
C2257      H2268   1.109       .  S
C2257      H2269   1.110       .  S
C2259      H2270   1.111       .  S
C2259      H2271   1.110       .  S
C2259      H2272   1.110       .  S
C2273      C2274   1.401       .  A
C2273      C2278   1.400       .  A
C2273      H2283   1.084       .  S
C2274      C2279   1.470       .  S
C2274      C2275   1.408       .  A
C2275      C2276   1.399       .  A
C2275      C2280   1.507       .  S
C2276      C2277   1.403       .  A
C2276      H2281   1.084       .  S
C2277      C2278   1.413       .  A
C2278      C2282   1.508       .  S
C2279      C2284   1.407       .  A
C2279      C2288   1.402       .  A
C2280      H2296   1.110       .  S
C2280      H2297   1.110       .  S
C2280      H2298   1.111       .  S
C2282      H2293   1.111       .  S
C2282      H2294   1.110       .  S
C2282      H2295   1.108       .  S
C2284      C2285   1.399       .  A
C2284      C2289   1.507       .  S
C2285      C2286   1.404       .  A
C2285      H2290   1.085       .  S
C2286      C2287   1.410       .  A
C2287      C2288   1.400       .  A
C2287      C2291   1.507       .  S
C2288      H2292   1.085       .  S
C2289      H2299   1.111       .  S
C2289      H2300   1.110       .  S
C2289      H2301   1.110       .  S
C2291      H2302   1.110       .  S
C2291      H2303   1.109   1_545  S
C2291      H2304   1.111       .  S
C2305      C2306   1.402   1_655  A
C2305      C2310   1.400       .  A
C2305      H2315   1.085       .  S
C2306      C2311   1.465   1_455  S
C2306      C2307   1.406       .  A
C2307      C2308   1.393       .  A
C2307      C2312   1.508       .  S
C2308      C2309   1.403       .  A
C2308      H2313   1.085       .  S
C2309      C2310   1.412   1_455  A
C2310      C2314   1.507       .  S
C2311      C2316   1.405   1_655  A
C2311      C2320   1.397       .  A
C2312      H2328   1.110       .  S
C2312      H2329   1.110       .  S
C2312      H2330   1.111       .  S
C2314      H2325   1.110       .  S
C2314      H2326   1.111       .  S
C2314      H2327   1.108       .  S
C2316      C2317   1.398       .  A
C2316      C2321   1.507       .  S
C2317      C2318   1.409   1_455  A
C2317      H2322   1.084       .  S
C2318      C2319   1.420       .  A
C2319      C2320   1.398       .  A
C2319      C2323   1.509       .  S
C2320      H2324   1.085       .  S
C2321      H2331   1.111       .  S
C2321      H2332   1.110       .  S
C2321      H2333   1.110       .  S
C2323      H2334   1.111       .  S
C2323      H2335   1.111       .  S
C2323      H2336   1.110       .  S
C2337      C2338   1.401       .  A
C2337      C2342   1.408       .  A
C2337      H2347   1.084       .  S
C2338      C2343   1.491       .  S
C2338      C2339   1.410       .  A
C2339      C2340   1.409       .  A
C2339      C2344   1.506       .  S
C2340      C2341   1.411       .  A
C2340      H2345   1.084       .  S
C2341      C2342   1.421       .  A
C2342      C2346   1.506       .  S
C2343      C2348   1.410       .  A
C2343      C2352   1.405       .  A
C2344      H2360   1.110       .  S
C2344      H2361   1.110       .  S
C2344      H2362   1.111       .  S
C2346      H2357   1.108       .  S
C2346      H2358   1.111       .  S
C2346      H2359   1.109       .  S
C2348      C2349   1.405       .  A
C2348      C2353   1.507       .  S
C2349      C2350   1.409       .  A
C2349      H2354   1.083       .  S
C2350      C2351   1.418       .  A
C2351      C2352   1.411       .  A
C2351      C2355   1.506       .  S
C2352      H2356   1.083       .  S
C2353      H2363   1.111       .  S
C2353      H2364   1.110       .  S
C2353      H2365   1.110       .  S
C2355      H2366   1.110       .  S
C2355      H2367   1.107       .  S
C2355      H2368   1.111       .  S
C2369      C2370   1.400       .  A
C2369      C2374   1.400       .  A
C2369      H2379   1.085       .  S
C2370      C2375   1.471       .  S
C2370      C2371   1.407       .  A
C2371      C2372   1.399       .  A
C2371      C2376   1.507       .  S
C2372      C2373   1.406       .  A
C2372      H2377   1.085       .  S
C2373      C2374   1.415       .  A
C2374      C2378   1.508       .  S
C2375      C2380   1.408       .  A
C2375      C2384   1.402       .  A
C2376      H2392   1.110       .  S
C2376      H2393   1.110       .  S
C2376      H2394   1.111       .  S
C2378      H2389   1.111       .  S
C2378      H2390   1.110       .  S
C2378      H2391   1.108   1_545  S
C2380      C2381   1.399       .  A
C2380      C2385   1.507       .  S
C2381      C2382   1.402       .  A
C2381      H2386   1.085       .  S
C2382      C2383   1.411       .  A
C2383      C2384   1.401       .  A
C2383      C2387   1.507       .  S
C2384      H2388   1.085       .  S
C2385      H2395   1.111       .  S
C2385      H2396   1.110       .  S
C2385      H2397   1.110       .  S
C2387      H2398   1.110       .  S
C2387      H2399   1.109       .  S
C2387      H2400   1.111       .  S
C2401      C2402   1.402       .  A
C2401      C2406   1.405       .  A
C2401      H2411   1.085       .  S
C2402      C2407   1.474   1_554  S
C2402      C2403   1.408       .  A
C2403      C2404   1.397       .  A
C2403      C2408   1.508   1_554  S
C2404      C2405   1.403       .  A
C2404      H2409   1.084       .  S
C2405      C2406   1.416       .  A
C2406      C2410   1.508       .  S
C2407      C2412   1.406       .  A
C2407      C2416   1.402   1_556  A
C2408      H2424   1.110       .  S
C2408      H2425   1.109       .  S
C2408      H2426   1.111       .  S
C2410      H2421   1.111       .  S
C2410      H2422   1.110       .  S
C2410      H2423   1.108       .  S
C2412      C2413   1.397       .  A
C2412      C2417   1.508       .  S
C2413      C2414   1.407       .  A
C2413      H2418   1.084       .  S
C2414      C2415   1.418       .  A
C2415      C2416   1.405   1_556  A
C2415      C2419   1.508   1_556  S
C2416      H2420   1.084       .  S
C2417      H2427   1.111       .  S
C2417      H2428   1.110       .  S
C2417      H2429   1.110       .  S
C2419      H2430   1.110       .  S
C2419      H2431   1.106   1_554  S
C2419      H2432   1.111       .  S
C2433      C2434   1.398       .  A
C2433      C2438   1.406       .  A
C2433      H2443   1.084       .  S
C2434      C2439   1.483       .  S
C2434      C2435   1.407       .  A
C2435      C2436   1.405       .  A
C2435      C2440   1.506       .  S
C2436      C2437   1.412       .  A
C2436      H2441   1.083       .  S
C2437      C2438   1.426       .  A
C2438      C2442   1.507       .  S
C2439      C2444   1.409       .  A
C2439      C2448   1.399       .  A
C2440      H2456   1.110       .  S
C2440      H2457   1.110   1_565  S
C2440      H2458   1.111   1_565  S
C2442      H2453   1.111       .  S
C2442      H2454   1.110       .  S
C2442      H2455   1.107       .  S
C2444      C2445   1.405       .  A
C2444      C2449   1.506       .  S
C2445      C2446   1.408       .  A
C2445      H2450   1.084       .  S
C2446      C2447   1.421       .  A
C2447      C2448   1.405       .  A
C2447      C2451   1.509       .  S
C2448      H2452   1.084       .  S
C2449      H2459   1.111       .  S
C2449      H2460   1.110       .  S
C2449      H2461   1.110       .  S
C2451      H2462   1.109       .  S
C2451      H2463   1.111       .  S
C2451      H2464   1.111       .  S
C2465      C2466   1.399   1_556  A
C2465      C2470   1.402       .  A
C2465      H2475   1.085       .  S
C2466      C2471   1.487       .  S
C2466      C2467   1.411       .  A
C2467      C2468   1.408   1_554  A
C2467      C2472   1.505       .  S
C2468      C2469   1.407       .  A
C2468      H2473   1.084       .  S
C2469      C2470   1.422       .  A
C2470      C2474   1.510   1_455  S
C2471      C2476   1.411       .  A
C2471      C2480   1.406       .  A
C2472      H2488   1.110       .  S
C2472      H2489   1.111       .  S
C2472      H2490   1.111       .  S
C2474      H2485   1.110       .  S
C2474      H2486   1.111       .  S
C2474      H2487   1.103       .  S
C2476      C2477   1.401       .  A
C2476      C2481   1.508   1_554  S
C2477      C2478   1.404       .  A
C2477      H2482   1.084       .  S
C2478      C2479   1.414       .  A
C2479      C2480   1.409       .  A
C2479      C2483   1.504       .  S
C2480      H2484   1.084       .  S
C2481      H2491   1.111       .  S
C2481      H2492   1.109       .  S
C2481      H2493   1.111       .  S
C2483      H2494   1.110       .  S
C2483      H2495   1.106       .  S
C2483      H2496   1.110       .  S
C2497      C2498   1.396       .  A
C2497      C2502   1.397       .  A
C2497      H2507   1.085       .  S
C2498      C2503   1.471       .  S
C2498      C2499   1.411       .  A
C2499      C2500   1.402       .  A
C2499      C2504   1.507       .  S
C2500      C2501   1.403       .  A
C2500      H2505   1.084       .  S
C2501      C2502   1.418       .  A
C2502      C2506   1.509       .  S
C2503      C2508   1.410       .  A
C2503      C2512   1.396       .  A
C2504      H2520   1.110       .  S
C2504      H2521   1.108       .  S
C2504      H2522   1.111       .  S
C2506      H2517   1.111       .  S
C2506      H2518   1.110       .  S
C2506      H2519   1.101       .  S
C2508      C2509   1.401       .  A
C2508      C2513   1.508       .  S
C2509      C2510   1.404       .  A
C2509      H2514   1.085       .  S
C2510      C2511   1.419       .  A
C2511      C2512   1.397       .  A
C2511      C2515   1.510       .  S
C2512      H2516   1.085       .  S
C2513      H2523   1.111       .  S
C2513      H2524   1.110       .  S
C2513      H2525   1.108       .  S
C2515      H2526   1.111       .  S
C2515      H2527   1.103       .  S
C2515      H2528   1.111       .  S
C2529      C2530   1.400       .  A
C2529      C2534   1.407       .  A
C2529      H2539   1.084       .  S
C2530      C2535   1.492       .  S
C2530      C2531   1.415       .  A
C2531      C2532   1.410       .  A
C2531      C2536   1.506       .  S
C2532      C2533   1.405   1_565  A
C2532      H2537   1.084   1_565  S
C2533      C2534   1.420   1_545  A
C2534      C2538   1.508   1_565  S
C2535      C2540   1.410       .  A
C2535      C2544   1.399       .  A
C2536      H2552   1.110       .  S
C2536      H2553   1.108       .  S
C2536      H2554   1.111       .  S
C2538      H2549   1.108   1_545  S
C2538      H2550   1.111   1_545  S
C2538      H2551   1.109       .  S
C2540      C2541   1.409       .  A
C2540      C2545   1.507       .  S
C2541      C2542   1.412       .  A
C2541      H2546   1.083       .  S
C2542      C2543   1.427       .  A
C2543      C2544   1.410       .  A
C2543      C2547   1.508       .  S
C2544      H2548   1.084       .  S
C2545      H2555   1.111       .  S
C2545      H2556   1.110       .  S
C2545      H2557   1.109       .  S
C2547      H2558   1.111       .  S
C2547      H2559   1.110       .  S
C2547      H2560   1.110       .  S
C2561      C2562   1.404       .  A
C2561      C2566   1.411       .  A
C2561      H2571   1.084       .  S
C2562      C2567   1.495       .  S
C2562      C2563   1.411       .  A
C2563      C2564   1.408       .  A
C2563      C2568   1.506       .  S
C2564      C2565   1.409       .  A
C2564      H2569   1.084       .  S
C2565      C2566   1.419       .  A
C2566      C2570   1.507       .  S
C2567      C2572   1.411       .  A
C2567      C2576   1.400       .  A
C2568      H2584   1.110       .  S
C2568      H2585   1.110       .  S
C2568      H2586   1.111       .  S
C2570      H2581   1.109       .  S
C2570      H2582   1.111       .  S
C2570      H2583   1.110       .  S
C2572      C2573   1.409       .  A
C2572      C2577   1.506       .  S
C2573      C2574   1.412       .  A
C2573      H2578   1.083       .  S
C2574      C2575   1.426       .  A
C2575      C2576   1.411       .  A
C2575      C2579   1.508   1_655  S
C2576      H2580   1.084       .  S
C2577      H2587   1.111       .  S
C2577      H2588   1.110       .  S
C2577      H2589   1.110       .  S
C2579      H2590   1.110       .  S
C2579      H2591   1.110   1_455  S
C2579      H2592   1.111   1_455  S
C2593      C2594   1.400       .  A
C2593      C2598   1.407       .  A
C2593      H2603   1.084       .  S
C2594      C2599   1.479       .  S
C2594      C2595   1.407       .  A
C2595      C2596   1.401       .  A
C2595      C2600   1.507       .  S
C2596      C2597   1.409       .  A
C2596      H2601   1.084       .  S
C2597      C2598   1.424       .  A
C2598      C2602   1.508       .  S
C2599      C2604   1.411       .  A
C2599      C2608   1.399       .  A
C2600      H2616   1.110       .  S
C2600      H2617   1.110       .  S
C2600      H2618   1.111       .  S
C2602      H2613   1.111       .  S
C2602      H2614   1.110       .  S
C2602      H2615   1.110       .  S
C2604      C2605   1.409       .  A
C2604      C2609   1.504       .  S
C2605      C2606   1.405       .  A
C2605      H2610   1.084       .  S
C2606      C2607   1.414       .  A
C2607      C2608   1.396       .  A
C2607      C2611   1.510       .  S
C2608      H2612   1.085       .  S
C2609      H2619   1.111       .  S
C2609      H2620   1.110       .  S
C2609      H2621   1.110       .  S
C2611      H2622   1.110       .  S
C2611      H2623   1.108       .  S
C2611      H2624   1.110       .  S
C2625      C2626   1.401       .  A
C2625      C2630   1.399       .  A
C2625      H2635   1.085       .  S
C2626      C2631   1.469       .  S
C2626      C2627   1.407       .  A
C2627      C2628   1.399       .  A
C2627      C2632   1.507       .  S
C2628      C2629   1.405       .  A
C2628      H2633   1.085       .  S
C2629      C2630   1.414       .  A
C2630      C2634   1.508       .  S
C2631      C2636   1.408       .  A
C2631      C2640   1.401       .  A
C2632      H2648   1.110       .  S
C2632      H2649   1.109       .  S
C2632      H2650   1.111       .  S
C2634      H2645   1.111       .  S
C2634      H2646   1.110       .  S
C2634      H2647   1.108       .  S
C2636      C2637   1.399       .  A
C2636      C2641   1.507       .  S
C2637      C2638   1.402       .  A
C2637      H2642   1.085       .  S
C2638      C2639   1.411       .  A
C2639      C2640   1.399       .  A
C2639      C2643   1.507       .  S
C2640      H2644   1.084       .  S
C2641      H2651   1.111       .  S
C2641      H2652   1.110       .  S
C2641      H2653   1.109       .  S
C2643      H2654   1.110       .  S
C2643      H2655   1.109       .  S
C2643      H2656   1.110       .  S
C2657      C2658   1.400       .  A
C2657      C2662   1.410       .  A
C2657      H2667   1.084       .  S
C2658      C2663   1.490       .  S
C2658      C2659   1.410       .  A
C2659      C2660   1.406       .  A
C2659      C2664   1.507       .  S
C2660      C2661   1.410       .  A
C2660      H2665   1.083       .  S
C2661      C2662   1.426       .  A
C2662      C2666   1.508       .  S
C2663      C2668   1.409       .  A
C2663      C2672   1.400       .  A
C2664      H2680   1.110       .  S
C2664      H2681   1.110       .  S
C2664      H2682   1.111       .  S
C2666      H2677   1.111       .  S
C2666      H2678   1.110       .  S
C2666      H2679   1.111       .  S
C2668      C2669   1.406       .  A
C2668      C2673   1.507       .  S
C2669      C2670   1.412       .  A
C2669      H2674   1.083       .  S
C2670      C2671   1.426       .  A
C2671      C2672   1.410       .  A
C2671      C2675   1.508       .  S
C2672      H2676   1.084       .  S
C2673      H2683   1.111       .  S
C2673      H2684   1.110       .  S
C2673      H2685   1.110       .  S
C2675      H2686   1.110       .  S
C2675      H2687   1.110       .  S
C2675      H2688   1.111       .  S
C2689      C2690   1.400       .  A
C2689      C2694   1.404       .  A
C2689      H2699   1.084       .  S
C2690      C2695   1.478       .  S
C2690      C2691   1.407       .  A
C2691      C2692   1.402   1_565  A
C2691      C2696   1.506       .  S
C2692      C2693   1.407       .  A
C2692      H2697   1.084   1_455  S
C2693      C2694   1.419   1_545  A
C2694      C2698   1.507       .  S
C2695      C2700   1.407       .  A
C2695      C2704   1.402       .  A
C2696      H2712   1.110       .  S
C2696      H2713   1.110       .  S
C2696      H2714   1.111       .  S
C2698      H2709   1.111       .  S
C2698      H2710   1.109       .  S
C2698      H2711   1.108   1_565  S
C2700      C2701   1.400       .  A
C2700      C2705   1.508       .  S
C2701      C2702   1.409       .  A
C2701      H2706   1.084       .  S
C2702      C2703   1.417       .  A
C2703      C2704   1.406       .  A
C2703      C2707   1.507       .  S
C2704      H2708   1.084       .  S
C2705      H2715   1.111       .  S
C2705      H2716   1.110       .  S
C2705      H2717   1.110   1_565  S
C2707      H2718   1.111       .  S
C2707      H2719   1.109       .  S
C2707      H2720   1.110       .  S
C2721      C2722   1.402       .  A
C2721      C2726   1.407       .  A
C2721      H2731   1.084       .  S
C2722      C2727   1.485       .  S
C2722      C2723   1.409       .  A
C2723      C2724   1.405       .  A
C2723      C2728   1.506       .  S
C2724      C2725   1.407       .  A
C2724      H2729   1.084       .  S
C2725      C2726   1.417       .  A
C2726      C2730   1.508       .  S
C2727      C2732   1.410       .  A
C2727      C2736   1.397       .  A
C2728      H2744   1.110       .  S
C2728      H2745   1.110       .  S
C2728      H2746   1.111       .  S
C2730      H2741   1.109       .  S
C2730      H2742   1.111       .  S
C2730      H2743   1.111       .  S
C2732      C2733   1.408       .  A
C2732      C2737   1.506       .  S
C2733      C2734   1.410       .  A
C2733      H2738   1.084       .  S
C2734      C2735   1.425       .  A
C2735      C2736   1.405       .  A
C2735      C2739   1.507       .  S
C2736      H2740   1.084       .  S
C2737      H2747   1.111       .  S
C2737      H2748   1.110       .  S
C2737      H2749   1.110       .  S
C2739      H2750   1.109       .  S
C2739      H2751   1.110       .  S
C2739      H2752   1.111       .  S
C2753      C2754   1.402       .  A
C2753      C2758   1.403       .  A
C2753      H2763   1.084       .  S
C2754      C2759   1.482       .  S
C2754      C2755   1.412       .  A
C2755      C2756   1.401       .  A
C2755      C2760   1.508       .  S
C2756      C2757   1.404       .  A
C2756      H2761   1.085       .  S
C2757      C2758   1.415       .  A
C2758      C2762   1.507       .  S
C2759      C2764   1.412       .  A
C2759      C2768   1.403       .  A
C2760      H2776   1.109       .  S
C2760      H2777   1.111       .  S
C2760      H2778   1.111       .  S
C2762      H2773   1.111       .  S
C2762      H2774   1.110       .  S
C2762      H2775   1.107       .  S
C2764      C2765   1.402       .  A
C2764      C2769   1.508       .  S
C2765      C2766   1.404       .  A
C2765      H2770   1.084       .  S
C2766      C2767   1.414       .  A
C2767      C2768   1.403       .  A
C2767      C2771   1.507       .  S
C2768      H2772   1.084       .  S
C2769      H2779   1.111       .  S
C2769      H2780   1.109       .  S
C2769      H2781   1.110       .  S
C2771      H2782   1.111       .  S
C2771      H2783   1.108       .  S
C2771      H2784   1.110       .  S
C2785      C2786   1.401       .  A
C2785      C2790   1.401       .  A
C2785      H2795   1.085       .  S
C2786      C2791   1.475       .  S
C2786      C2787   1.408       .  A
C2787      C2788   1.401       .  A
C2787      C2792   1.506       .  S
C2788      C2789   1.405       .  A
C2788      H2793   1.084       .  S
C2789      C2790   1.416       .  A
C2790      C2794   1.509       .  S
C2791      C2796   1.411       .  A
C2791      C2800   1.399       .  A
C2792      H2808   1.110       .  S
C2792      H2809   1.110       .  S
C2792      H2810   1.111       .  S
C2794      H2805   1.110       .  S
C2794      H2806   1.111       .  S
C2794      H2807   1.108       .  S
C2796      C2797   1.402       .  A
C2796      C2801   1.506       .  S
C2797      C2798   1.402       .  A
C2797      H2802   1.085       .  S
C2798      C2799   1.414       .  A
C2799      C2800   1.401       .  A
C2799      C2803   1.508       .  S
C2800      H2804   1.084       .  S
C2801      H2811   1.111       .  S
C2801      H2812   1.110       .  S
C2801      H2813   1.110       .  S
C2803      H2814   1.110       .  S
C2803      H2815   1.110       .  S
C2803      H2816   1.111       .  S
C2817      C2818   1.399   1_556  A
C2817      C2822   1.404       .  A
C2817      H2827   1.084       .  S
C2818      C2823   1.478       .  S
C2818      C2819   1.407       .  A
C2819      C2820   1.403       .  A
C2819      C2824   1.506       .  S
C2820      C2821   1.410   1_554  A
C2820      H2825   1.084       .  S
C2821      C2822   1.420       .  A
C2822      C2826   1.508       .  S
C2823      C2828   1.407       .  A
C2823      C2832   1.405       .  A
C2824      H2840   1.110       .  S
C2824      H2841   1.110       .  S
C2824      H2842   1.111       .  S
C2826      H2837   1.110       .  S
C2826      H2838   1.111       .  S
C2826      H2839   1.109       .  S
C2828      C2829   1.397       .  A
C2828      C2833   1.509       .  S
C2829      C2830   1.406       .  A
C2829      H2834   1.081       .  S
C2830      C2831   1.414       .  A
C2831      C2832   1.409       .  A
C2831      C2835   1.506       .  S
C2832      H2836   1.083       .  S
C2833      H2843   1.111       .  S
C2833      H2844   1.110       .  S
C2833      H2845   1.110       .  S
C2835      H2846   1.111       .  S
C2835      H2847   1.109       .  S
C2835      H2848   1.110       .  S
C2849      C2850   1.401       .  A
C2849      C2854   1.399       .  A
C2849      H2859   1.084       .  S
C2850      C2855   1.484       .  S
C2850      C2851   1.413       .  A
C2851      C2852   1.409       .  A
C2851      C2856   1.505       .  S
C2852      C2853   1.405       .  A
C2852      H2857   1.084       .  S
C2853      C2854   1.414       .  A
C2854      C2858   1.510       .  S
C2855      C2860   1.410       .  A
C2855      C2864   1.401       .  A
C2856      H2872   1.110       .  S
C2856      H2873   1.110       .  S
C2856      H2874   1.111       .  S
C2858      H2869   1.108       .  S
C2858      H2870   1.111       .  S
C2858      H2871   1.110       .  S
C2860      C2861   1.402       .  A
C2860      C2865   1.508       .  S
C2861      C2862   1.408       .  A
C2861      H2866   1.083       .  S
C2862      C2863   1.421       .  A
C2863      C2864   1.408       .  A
C2863      C2867   1.507       .  S
C2864      H2868   1.084       .  S
C2865      H2875   1.111       .  S
C2865      H2876   1.109       .  S
C2865      H2877   1.110       .  S
C2867      H2878   1.109       .  S
C2867      H2879   1.111       .  S
C2867      H2880   1.111       .  S
C2881      C2882   1.400   1_554  A
C2881      C2886   1.406       .  A
C2881      H2891   1.084       .  S
C2882      C2887   1.483       .  S
C2882      C2883   1.408       .  A
C2883      C2884   1.402   1_556  A
C2883      C2888   1.508       .  S
C2884      C2885   1.410       .  A
C2884      H2889   1.083   1_544  S
C2885      C2886   1.423       .  A
C2886      C2890   1.507       .  S
C2887      C2892   1.411       .  A
C2887      C2896   1.398       .  A
C2888      H2904   1.109       .  S
C2888      H2905   1.110       .  S
C2888      H2906   1.111       .  S
C2890      H2901   1.111       .  S
C2890      H2902   1.106       .  S
C2890      H2903   1.110       .  S
C2892      C2893   1.407       .  A
C2892      C2897   1.506       .  S
C2893      C2894   1.407       .  A
C2893      H2898   1.084       .  S
C2894      C2895   1.421       .  A
C2895      C2896   1.400       .  A
C2895      C2899   1.507       .  S
C2896      H2900   1.084       .  S
C2897      H2907   1.111       .  S
C2897      H2908   1.109   1_556  S
C2897      H2909   1.110       .  S
C2899      H2910   1.111       .  S
C2899      H2911   1.107       .  S
C2899      H2912   1.109       .  S
C2913      C2914   1.403       .  A
C2913      C2918   1.400       .  A
C2913      H2923   1.085       .  S
C2914      C2919   1.475       .  S
C2914      C2915   1.409       .  A
C2915      C2916   1.400       .  A
C2915      C2920   1.507       .  S
C2916      C2917   1.403       .  A
C2916      H2921   1.085       .  S
C2917      C2918   1.412       .  A
C2918      C2922   1.508       .  S
C2919      C2924   1.411       .  A
C2919      C2928   1.399       .  A
C2920      H2936   1.109       .  S
C2920      H2937   1.110       .  S
C2920      H2938   1.111       .  S
C2922      H2933   1.110       .  S
C2922      H2934   1.110       .  S
C2922      H2935   1.109       .  S
C2924      C2925   1.401       .  A
C2924      C2929   1.507       .  S
C2925      C2926   1.403       .  A
C2925      H2930   1.085       .  S
C2926      C2927   1.416       .  A
C2927      C2928   1.400       .  A
C2927      C2931   1.509       .  S
C2928      H2932   1.084       .  S
C2929      H2939   1.111       .  S
C2929      H2940   1.109       .  S
C2929      H2941   1.110       .  S
C2931      H2942   1.110       .  S
C2931      H2943   1.110       .  S
C2931      H2944   1.111       .  S
C2945      C2946   1.396       .  A
C2945      C2950   1.396       .  A
C2945      H2955   1.085       .  S
C2946      C2951   1.471   1_545  S
C2946      C2947   1.408       .  A
C2947      C2948   1.403       .  A
C2947      C2952   1.506       .  S
C2948      C2949   1.406       .  A
C2948      H2953   1.084       .  S
C2949      C2950   1.422       .  A
C2950      C2954   1.511       .  S
C2951      C2956   1.406       .  A
C2951      C2960   1.401       .  A
C2952      H2968   1.110   1_545  S
C2952      H2969   1.111       .  S
C2952      H2970   1.111       .  S
C2954      H2965   1.110       .  S
C2954      H2966   1.111       .  S
C2954      H2967   1.099       .  S
C2956      C2957   1.396       .  A
C2956      C2961   1.508   1_565  S
C2957      C2958   1.407       .  A
C2957      H2962   1.084       .  S
C2958      C2959   1.417       .  A
C2959      C2960   1.403       .  A
C2959      C2963   1.508       .  S
C2960      H2964   1.084       .  S
C2961      H2971   1.111       .  S
C2961      H2972   1.110       .  S
C2961      H2973   1.110       .  S
C2963      H2974   1.111       .  S
C2963      H2975   1.106       .  S
C2963      H2976   1.110       .  S
C2977      C2978   1.400       .  A
C2977      C2982   1.408       .  A
C2977      H2987   1.084       .  S
C2978      C2983   1.484       .  S
C2978      C2979   1.409       .  A
C2979      C2980   1.402       .  A
C2979      C2984   1.508       .  S
C2980      C2981   1.409       .  A
C2980      H2985   1.083       .  S
C2981      C2982   1.423       .  A
C2982      C2986   1.508       .  S
C2983      C2988   1.410       .  A
C2983      C2992   1.401       .  A
C2984      H3000   1.110       .  S
C2984      H3001   1.110       .  S
C2984      H3002   1.111       .  S
C2986      H2997   1.111       .  S
C2986      H2998   1.109       .  S
C2986      H2999   1.111       .  S
C2988      C2989   1.404       .  A
C2988      C2993   1.506       .  S
C2989      C2990   1.406       .  A
C2989      H2994   1.084       .  S
C2990      C2991   1.419       .  A
C2991      C2992   1.405       .  A
C2991      C2995   1.509       .  S
C2992      H2996   1.084       .  S
C2993      H3003   1.111       .  S
C2993      H3004   1.110       .  S
C2993      H3005   1.110       .  S
C2995      H3006   1.111       .  S
C2995      H3007   1.111       .  S
C2995      H3008   1.109       .  S
C3009      C3010   1.405       .  A
C3009      C3014   1.411       .  A
C3009      H3019   1.084       .  S
C3010      C3015   1.490       .  S
C3010      C3011   1.410       .  A
C3011      C3012   1.404       .  A
C3011      C3016   1.507       .  S
C3012      C3013   1.408       .  A
C3012      H3017   1.084       .  S
C3013      C3014   1.417       .  A
C3014      C3018   1.506       .  S
C3015      C3020   1.410       .  A
C3015      C3024   1.403       .  A
C3016      H3032   1.110       .  S
C3016      H3033   1.110       .  S
C3016      H3034   1.111       .  S
C3018      H3029   1.111       .  S
C3018      H3030   1.111       .  S
C3018      H3031   1.109       .  S
C3020      C3021   1.407       .  A
C3020      C3025   1.506       .  S
C3021      C3022   1.408       .  A
C3021      H3026   1.084       .  S
C3022      C3023   1.418       .  A
C3023      C3024   1.408       .  A
C3023      C3027   1.507       .  S
C3024      H3028   1.084       .  S
C3025      H3035   1.111       .  S
C3025      H3036   1.110       .  S
C3025      H3037   1.110       .  S
C3027      H3038   1.109       .  S
C3027      H3039   1.110       .  S
C3027      H3040   1.111       .  S
C3041      C3042   1.399       .  A
C3041      C3046   1.406       .  A
C3041      H3051   1.084       .  S
C3042      C3047   1.479       .  S
C3042      C3043   1.407       .  A
C3043      C3044   1.400       .  A
C3043      C3048   1.508       .  S
C3044      C3045   1.411       .  A
C3044      H3049   1.083       .  S
C3045      C3046   1.424       .  A
C3046      C3050   1.508       .  S
C3047      C3052   1.409       .  A
C3047      C3056   1.403       .  A
C3048      H3064   1.110       .  S
C3048      H3065   1.110       .  S
C3048      H3066   1.111       .  S
C3050      H3061   1.110       .  S
C3050      H3062   1.111       .  S
C3050      H3063   1.110       .  S
C3052      C3053   1.397       .  A
C3052      C3057   1.509       .  S
C3053      C3054   1.405       .  A
C3053      H3058   1.083       .  S
C3054      C3055   1.416       .  A
C3055      C3056   1.408       .  A
C3055      C3059   1.506       .  S
C3056      H3060   1.084       .  S
C3057      H3067   1.111       .  S
C3057      H3068   1.110       .  S
C3057      H3069   1.110       .  S
C3059      H3070   1.111       .  S
C3059      H3071   1.110       .  S
C3059      H3072   1.109       .  S
C3073      C3074   1.400       .  A
C3073      C3078   1.409       .  A
C3073      H3083   1.084       .  S
C3074      C3079   1.490       .  S
C3074      C3075   1.410       .  A
C3075      C3076   1.406       .  A
C3075      C3080   1.507       .  S
C3076      C3077   1.411       .  A
C3076      H3081   1.083       .  S
C3077      C3078   1.428       .  A
C3078      C3082   1.509       .  S
C3079      C3084   1.410       .  A
C3079      C3088   1.404       .  A
C3080      H3096   1.109       .  S
C3080      H3097   1.110       .  S
C3080      H3098   1.111       .  S
C3082      H3093   1.111       .  S
C3082      H3094   1.110       .  S
C3082      H3095   1.110       .  S
C3084      C3085   1.405       .  A
C3084      C3089   1.507       .  S
C3085      C3086   1.408       .  A
C3085      H3090   1.084   1_545  S
C3086      C3087   1.418       .  A
C3087      C3088   1.409       .  A
C3087      C3091   1.508       .  S
C3088      H3092   1.084       .  S
C3089      H3099   1.111       .  S
C3089      H3100   1.109       .  S
C3089      H3101   1.110       .  S
C3091      H3102   1.111   1_545  S
C3091      H3103   1.109       .  S
C3091      H3104   1.111       .  S
C3105      C3106   1.397       .  A
C3105      C3110   1.400       .  A
C3105      H3115   1.085       .  S
C3106      C3111   1.476       .  S
C3106      C3107   1.412       .  A
C3107      C3108   1.404       .  A
C3107      C3112   1.506       .  S
C3108      C3109   1.402       .  A
C3108      H3113   1.085       .  S
C3109      C3110   1.419       .  A
C3110      C3114   1.507       .  S
C3111      C3116   1.410       .  A
C3111      C3120   1.398       .  A
C3112      H3128   1.110       .  S
C3112      H3129   1.109       .  S
C3112      H3130   1.111       .  S
C3114      H3125   1.111       .  S
C3114      H3126   1.110       .  S
C3114      H3127   1.101       .  S
C3116      C3117   1.403       .  A
C3116      C3121   1.507       .  S
C3117      C3118   1.404       .  A
C3117      H3122   1.084       .  S
C3118      C3119   1.420       .  A
C3119      C3120   1.401       .  A
C3119      C3123   1.510       .  S
C3120      H3124   1.084       .  S
C3121      H3131   1.111       .  S
C3121      H3132   1.110       .  S
C3121      H3133   1.109       .  S
C3123      H3134   1.110       .  S
C3123      H3135   1.103       .  S
C3123      H3136   1.111       .  S
C3137      C3138   1.398       .  A
C3137      C3142   1.408       .  A
C3137      H3147   1.084       .  S
C3138      C3143   1.489       .  S
C3138      C3139   1.409       .  A
C3139      C3140   1.407       .  A
C3139      C3144   1.506       .  S
C3140      C3141   1.411       .  A
C3140      H3145   1.083       .  S
C3141      C3142   1.428       .  A
C3142      C3146   1.510       .  S
C3143      C3148   1.413       .  A
C3143      C3152   1.399       .  A
C3144      H3160   1.110       .  S
C3144      H3161   1.110       .  S
C3144      H3162   1.111       .  S
C3146      H3157   1.110       .  S
C3146      H3158   1.111       .  S
C3146      H3159   1.110       .  S
C3148      C3149   1.408       .  A
C3148      C3153   1.506       .  S
C3149      C3150   1.404       .  A
C3149      H3154   1.084       .  S
C3150      C3151   1.422       .  A
C3151      C3152   1.406       .  A
C3151      C3155   1.508       .  S
C3152      H3156   1.084       .  S
C3153      H3163   1.111       .  S
C3153      H3164   1.109       .  S
C3153      H3165   1.110       .  S
C3155      H3166   1.110       .  S
C3155      H3167   1.105       .  S
C3155      H3168   1.111       .  S
C3169      C3170   1.398       .  A
C3169      C3174   1.407       .  A
C3169      H3179   1.084       .  S
C3170      C3175   1.489       .  S
C3170      C3171   1.412       .  A
C3171      C3172   1.407       .  A
C3171      C3176   1.507       .  S
C3172      C3173   1.408       .  A
C3172      H3177   1.084       .  S
C3173      C3174   1.426       .  A
C3174      C3178   1.509       .  S
C3175      C3180   1.409       .  A
C3175      C3184   1.401       .  A
C3176      H3192   1.110       .  S
C3176      H3193   1.111       .  S
C3176      H3194   1.111       .  S
C3178      H3189   1.110       .  S
C3178      H3190   1.111       .  S
C3178      H3191   1.110       .  S
C3180      C3181   1.405       .  A
C3180      C3185   1.506       .  S
C3181      C3182   1.410       .  A
C3181      H3186   1.083       .  S
C3182      C3183   1.423       .  A
C3183      C3184   1.409       .  A
C3183      C3187   1.508       .  S
C3184      H3188   1.084       .  S
C3185      H3195   1.111       .  S
C3185      H3196   1.110       .  S
C3185      H3197   1.110       .  S
C3187      H3198   1.110       .  S
C3187      H3199   1.109       .  S
C3187      H3200   1.111       .  S
C3201      C3202   1.403       .  A
C3201      C3206   1.405       .  A
C3201      H3211   1.085       .  S
C3202      C3207   1.485       .  S
C3202      C3203   1.413       .  A
C3203      C3204   1.401       .  A
C3203      C3208   1.508       .  S
C3204      C3205   1.404       .  A
C3204      H3209   1.085       .  S
C3205      C3206   1.416       .  A
C3206      C3210   1.507       .  S
C3207      C3212   1.413       .  A
C3207      C3216   1.403       .  A
C3208      H3224   1.109       .  S
C3208      H3225   1.111       .  S
C3208      H3226   1.111       .  S
C3210      H3221   1.110       .  S
C3210      H3222   1.111       .  S
C3210      H3223   1.108       .  S
C3212      C3213   1.403       .  A
C3212      C3217   1.508       .  S
C3213      C3214   1.403       .  A
C3213      H3218   1.085       .  S
C3214      C3215   1.414       .  A
C3215      C3216   1.404       .  A
C3215      C3219   1.507       .  S
C3216      H3220   1.084       .  S
C3217      H3227   1.111       .  S
C3217      H3228   1.109       .  S
C3217      H3229   1.110       .  S
C3219      H3230   1.111       .  S
C3219      H3231   1.108       .  S
C3219      H3232   1.110       .  S
C3233      C3234   1.394       .  A
C3233      C3238   1.391       .  A
C3233      H3243   1.085       .  S
C3234      C3239   1.463       .  S
C3234      C3235   1.409       .  A
C3235      C3236   1.401       .  A
C3235      C3240   1.506       .  S
C3236      C3237   1.402       .  A
C3236      H3241   1.084       .  S
C3237      C3238   1.417       .  A
C3238      C3242   1.509       .  S
C3239      C3244   1.405       .  A
C3239      C3248   1.395       .  A
C3240      H3256   1.110       .  S
C3240      H3257   1.110       .  S
C3240      H3258   1.111       .  S
C3242      H3253   1.110       .  S
C3242      H3254   1.111       .  S
C3242      H3255   1.102       .  S
C3244      C3245   1.393       .  A
C3244      C3249   1.509       .  S
C3245      C3246   1.409       .  A
C3245      H3250   1.083       .  S
C3246      C3247   1.424       .  A
C3247      C3248   1.400       .  A
C3247      C3251   1.509       .  S
C3248      H3252   1.084       .  S
C3249      H3259   1.111       .  S
C3249      H3260   1.110       .  S
C3249      H3261   1.110       .  S
C3251      H3262   1.110       .  S
C3251      H3263   1.110       .  S
C3251      H3264   1.111       .  S
C3265      C3266   1.402       .  A
C3265      C3270   1.402       .  A
C3265      H3275   1.084       .  S
C3266      C3271   1.473   1_564  S
C3266      C3267   1.409       .  A
C3267      C3268   1.399       .  A
C3267      C3272   1.507   1_554  S
C3268      C3269   1.403       .  A
C3268      H3273   1.085       .  S
C3269      C3270   1.414       .  A
C3270      C3274   1.509       .  S
C3271      C3276   1.406       .  A
C3271      C3280   1.402   1_556  A
C3272      H3288   1.110   1_565  S
C3272      H3289   1.109       .  S
C3272      H3290   1.111       .  S
C3274      H3285   1.110       .  S
C3274      H3286   1.110       .  S
C3274      H3287   1.108       .  S
C3276      C3277   1.396       .  A
C3276      C3281   1.508   1_545  S
C3277      C3278   1.407       .  A
C3277      H3282   1.084       .  S
C3278      C3279   1.416       .  A
C3279      C3280   1.406   1_556  A
C3279      C3283   1.507   1_556  S
C3280      H3284   1.084       .  S
C3281      H3291   1.111       .  S
C3281      H3292   1.110       .  S
C3281      H3293   1.109       .  S
C3283      H3294   1.109       .  S
C3283      H3295   1.111   1_554  S
C3283      H3296   1.111       .  S
C3297      C3298   1.400       .  A
C3297      C3302   1.409       .  A
C3297      H3307   1.084       .  S
C3298      C3303   1.485       .  S
C3298      C3299   1.408       .  A
C3299      C3300   1.403       .  A
C3299      C3304   1.507       .  S
C3300      C3301   1.410       .  A
C3300      H3305   1.084       .  S
C3301      C3302   1.424       .  A
C3302      C3306   1.508       .  S
C3303      C3308   1.410       .  A
C3303      C3312   1.402       .  A
C3304      H3320   1.110       .  S
C3304      H3321   1.110       .  S
C3304      H3322   1.111       .  S
C3306      H3317   1.111       .  S
C3306      H3318   1.111       .  S
C3306      H3319   1.109       .  S
C3308      C3309   1.403       .  A
C3308      C3313   1.507       .  S
C3309      C3310   1.406       .  A
C3309      H3314   1.084       .  S
C3310      C3311   1.419       .  A
C3311      C3312   1.409       .  A
C3311      C3315   1.507       .  S
C3312      H3316   1.084       .  S
C3313      H3323   1.111       .  S
C3313      H3324   1.110       .  S
C3313      H3325   1.110       .  S
C3315      H3326   1.109       .  S
C3315      H3327   1.111       .  S
C3315      H3328   1.111       .  S
C3329      C3330   1.398       .  A
C3329      C3334   1.401       .  A
C3329      H3339   1.084   1_554  S
C3330      C3335   1.488       .  S
C3330      C3331   1.413       .  A
C3331      C3332   1.410       .  A
C3331      C3336   1.506       .  S
C3332      C3333   1.407       .  A
C3332      H3337   1.084       .  S
C3333      C3334   1.423       .  A
C3334      C3338   1.510       .  S
C3335      C3340   1.413   1_554  A
C3335      C3344   1.404   1_554  A
C3336      H3352   1.109       .  S
C3336      H3353   1.111       .  S
C3336      H3354   1.111       .  S
C3338      H3349   1.110       .  S
C3338      H3350   1.111   1_554  S
C3338      H3351   1.110       .  S
C3340      C3341   1.404       .  A
C3340      C3345   1.507       .  S
C3341      C3342   1.404       .  A
C3341      H3346   1.084       .  S
C3342      C3343   1.415   1_565  A
C3343      C3344   1.406   1_545  A
C3343      C3347   1.507       .  S
C3344      H3348   1.085   1_556  S
C3345      H3355   1.110       .  S
C3345      H3356   1.108       .  S
C3345      H3357   1.110   1_556  S
C3347      H3358   1.111       .  S
C3347      H3359   1.108       .  S
C3347      H3360   1.110       .  S
C3361      C3362   1.395       .  A
C3361      C3366   1.400       .  A
C3361      H3371   1.085   1_556  S
C3362      C3367   1.486       .  S
C3362      C3363   1.413       .  A
C3363      C3364   1.412       .  A
C3363      C3368   1.505       .  S
C3364      C3365   1.406       .  A
C3364      H3369   1.084       .  S
C3365      C3366   1.424       .  A
C3366      C3370   1.509   1_556  S
C3367      C3372   1.412       .  A
C3367      C3376   1.399   1_556  A
C3368      H3384   1.110       .  S
C3368      H3385   1.110       .  S
C3368      H3386   1.111       .  S
C3370      H3381   1.111       .  S
C3370      H3382   1.111       .  S
C3370      H3383   1.099   1_554  S
C3372      C3373   1.408   1_556  A
C3372      C3377   1.506       .  S
C3373      C3374   1.406       .  A
C3373      H3378   1.084       .  S
C3374      C3375   1.421       .  A
C3375      C3376   1.404       .  A
C3375      C3379   1.509       .  S
C3376      H3380   1.085       .  S
C3377      H3387   1.111       .  S
C3377      H3388   1.110       .  S
C3377      H3389   1.110       .  S
C3379      H3390   1.110       .  S
C3379      H3391   1.102       .  S
C3379      H3392   1.111       .  S
C3393      C3394   1.395       .  A
C3393      C3398   1.402       .  A
C3393      H3403   1.085       .  S
C3394      C3399   1.478       .  S
C3394      C3395   1.408       .  A
C3395      C3396   1.405       .  A
C3395      C3400   1.506       .  S
C3396      C3397   1.411       .  A
C3396      H3401   1.083       .  S
C3397      C3398   1.427       .  A
C3398      C3402   1.507       .  S
C3399      C3404   1.409       .  A
C3399      C3408   1.403       .  A
C3400      H3416   1.110       .  S
C3400      H3417   1.110       .  S
C3400      H3418   1.111       .  S
C3402      H3413   1.110       .  S
C3402      H3414   1.111       .  S
C3402      H3415   1.110       .  S
C3404      C3405   1.397       .  A
C3404      C3409   1.509       .  S
C3405      C3406   1.404       .  A
C3405      H3410   1.085       .  S
C3406      C3407   1.415       .  A
C3407      C3408   1.407       .  A
C3407      C3411   1.506       .  S
C3408      H3412   1.084       .  S
C3409      H3419   1.111       .  S
C3409      H3420   1.110       .  S
C3409      H3421   1.110       .  S
C3411      H3422   1.110       .  S
C3411      H3423   1.107       .  S
C3411      H3424   1.111       .  S
C3425      C3426   1.400       .  A
C3425      C3430   1.401       .  A
C3425      H3435   1.084       .  S
C3426      C3431   1.473       .  S
C3426      C3427   1.411       .  A
C3427      C3428   1.399       .  A
C3427      C3432   1.507       .  S
C3428      C3429   1.401       .  A
C3428      H3433   1.084       .  S
C3429      C3430   1.415       .  A
C3430      C3434   1.508       .  S
C3431      C3436   1.408       .  A
C3431      C3440   1.402       .  A
C3432      H3448   1.109       .  S
C3432      H3449   1.110       .  S
C3432      H3450   1.111       .  S
C3434      H3445   1.110       .  S
C3434      H3446   1.111       .  S
C3434      H3447   1.110       .  S
C3436      C3437   1.399       .  A
C3436      C3441   1.507       .  S
C3437      C3438   1.405       .  A
C3437      H3442   1.084       .  S
C3438      C3439   1.412       .  A
C3439      C3440   1.401       .  A
C3439      C3443   1.508       .  S
C3440      H3444   1.084       .  S
C3441      H3451   1.111       .  S
C3441      H3452   1.110       .  S
C3441      H3453   1.110       .  S
C3443      H3454   1.111       .  S
C3443      H3455   1.110       .  S
C3443      H3456   1.109       .  S
C3457      C3458   1.395       .  A
C3457      C3462   1.399       .  A
C3457      H3467   1.085   1_545  S
C3458      C3463   1.471   1_545  S
C3458      C3459   1.408       .  A
C3459      C3460   1.402       .  A
C3459      C3464   1.507       .  S
C3460      C3461   1.408       .  A
C3460      H3465   1.084       .  S
C3461      C3462   1.425       .  A
C3462      C3466   1.510       .  S
C3463      C3468   1.410       .  A
C3463      C3472   1.397       .  A
C3464      H3480   1.110       .  S
C3464      H3481   1.109       .  S
C3464      H3482   1.111       .  S
C3466      H3477   1.111       .  S
C3466      H3478   1.110       .  S
C3466      H3479   1.109       .  S
C3468      C3469   1.402       .  A
C3468      C3473   1.507       .  S
C3469      C3470   1.404       .  A
C3469      H3474   1.085       .  S
C3470      C3471   1.417       .  A
C3471      C3472   1.396       .  A
C3471      C3475   1.507       .  S
C3472      H3476   1.085       .  S
C3473      H3483   1.111       .  S
C3473      H3484   1.110       .  S
C3473      H3485   1.108       .  S
C3475      H3486   1.110       .  S
C3475      H3487   1.102       .  S
C3475      H3488   1.110       .  S
C3489      C3490   1.404       .  A
C3489      C3494   1.409       .  A
C3489      H3499   1.084       .  S
C3490      C3495   1.487       .  S
C3490      C3491   1.410       .  A
C3491      C3492   1.404       .  A
C3491      C3496   1.507       .  S
C3492      C3493   1.408       .  A
C3492      H3497   1.084       .  S
C3493      C3494   1.416       .  A
C3494      C3498   1.506       .  S
C3495      C3500   1.408       .  A
C3495      C3504   1.402       .  A
C3496      H3512   1.110       .  S
C3496      H3513   1.110       .  S
C3496      H3514   1.111       .  S
C3498      H3509   1.111       .  S
C3498      H3510   1.109       .  S
C3498      H3511   1.110       .  S
C3500      C3501   1.405       .  A
C3500      C3505   1.506       .  S
C3501      C3502   1.410       .  A
C3501      H3506   1.083       .  S
C3502      C3503   1.421       .  A
C3503      C3504   1.409       .  A
C3503      C3507   1.508       .  S
C3504      H3508   1.084       .  S
C3505      H3515   1.111       .  S
C3505      H3516   1.110       .  S
C3505      H3517   1.110       .  S
C3507      H3518   1.111       .  S
C3507      H3519   1.109       .  S
C3507      H3520   1.110       .  S
C3521      C3522   1.402       .  A
C3521      C3526   1.409       .  A
C3521      H3531   1.084       .  S
C3522      C3527   1.481       .  S
C3522      C3523   1.408       .  A
C3523      C3524   1.398       .  A
C3523      C3528   1.509       .  S
C3524      C3525   1.409       .  A
C3524      H3529   1.083       .  S
C3525      C3526   1.421       .  A
C3526      C3530   1.507       .  S
C3527      C3532   1.409       .  A
C3527      C3536   1.401       .  A
C3528      H3544   1.110       .  S
C3528      H3545   1.110       .  S
C3528      H3546   1.111       .  S
C3530      H3541   1.109       .  S
C3530      H3542   1.111       .  S
C3530      H3543   1.111       .  S
C3532      C3533   1.400       .  A
C3532      C3537   1.508       .  S
C3533      C3534   1.407       .  A
C3533      H3538   1.084       .  S
C3534      C3535   1.420       .  A
C3535      C3536   1.406       .  A
C3535      C3539   1.508       .  S
C3536      H3540   1.084       .  S
C3537      H3547   1.111       .  S
C3537      H3548   1.110       .  S
C3537      H3549   1.110       .  S
C3539      H3550   1.111       .  S
C3539      H3551   1.107       .  S
C3539      H3552   1.110       .  S
C3553      C3554   1.398       .  A
C3553      C3558   1.405       .  A
C3553      H3563   1.084       .  S
C3554      C3559   1.488       .  S
C3554      C3555   1.410       .  A
C3555      C3556   1.408       .  A
C3555      C3560   1.507       .  S
C3556      C3557   1.413       .  A
C3556      H3561   1.084       .  S
C3557      C3558   1.426       .  A
C3558      C3562   1.508       .  S
C3559      C3564   1.411       .  A
C3559      C3568   1.404       .  A
C3560      H3576   1.110       .  S
C3560      H3577   1.110       .  S
C3560      H3578   1.111       .  S
C3562      H3573   1.111       .  S
C3562      H3574   1.109       .  S
C3562      H3575   1.110       .  S
C3564      C3565   1.405       .  A
C3564      C3569   1.507       .  S
C3565      C3566   1.406       .  A
C3565      H3570   1.084   1_655  S
C3566      C3567   1.417       .  A
C3567      C3568   1.406       .  A
C3567      C3571   1.508       .  S
C3568      H3572   1.084       .  S
C3569      H3579   1.111   1_655  S
C3569      H3580   1.109       .  S
C3569      H3581   1.110       .  S
C3571      H3582   1.111   1_545  S
C3571      H3583   1.107   1_545  S
C3571      H3584   1.110       .  S
C3585      C3586   1.403       .  A
C3585      C3590   1.402       .  A
C3585      H3595   1.084       .  S
C3586      C3591   1.475       .  S
C3586      C3587   1.409       .  A
C3587      C3588   1.399       .  A
C3587      C3592   1.507       .  S
C3588      C3589   1.404       .  A
C3588      H3593   1.085       .  S
C3589      C3590   1.412       .  A
C3590      C3594   1.507       .  S
C3591      C3596   1.411       .  A
C3591      C3600   1.399       .  A
C3592      H3608   1.109       .  S
C3592      H3609   1.110       .  S
C3592      H3610   1.111       .  S
C3594      H3605   1.109       .  S
C3594      H3606   1.111       .  S
C3594      H3607   1.110       .  S
C3596      C3597   1.401       .  A
C3596      C3601   1.507       .  S
C3597      C3598   1.403       .  A
C3597      H3602   1.085       .  S
C3598      C3599   1.416       .  A
C3599      C3600   1.399       .  A
C3599      C3603   1.507       .  S
C3600      H3604   1.085       .  S
C3601      H3611   1.111       .  S
C3601      H3612   1.109       .  S
C3601      H3613   1.110       .  S
C3603      H3614   1.110       .  S
C3603      H3615   1.110       .  S
C3603      H3616   1.111       .  S
C3617      C3618   1.395       .  A
C3617      C3622   1.397       .  A
C3617      H3627   1.085       .  S
C3618      C3623   1.472   1_645  S
C3618      C3619   1.410       .  A
C3619      C3620   1.404       .  A
C3619      C3624   1.507   1_655  S
C3620      C3621   1.405       .  A
C3620      H3625   1.084       .  S
C3621      C3622   1.421       .  A
C3622      C3626   1.510       .  S
C3623      C3628   1.409   1_455  A
C3623      C3632   1.398       .  A
C3624      H3640   1.110       .  S
C3624      H3641   1.109   1_455  S
C3624      H3642   1.111       .  S
C3626      H3637   1.111       .  S
C3626      H3638   1.110       .  S
C3626      H3639   1.110       .  S
C3628      C3629   1.402       .  A
C3628      C3633   1.507       .  S
C3629      C3630   1.403   1_655  A
C3629      H3634   1.082       .  S
C3630      C3631   1.418       .  A
C3631      C3632   1.398       .  A
C3631      C3635   1.508       .  S
C3632      H3636   1.085   1_565  S
C3633      H3643   1.111       .  S
C3633      H3644   1.110       .  S
C3633      H3645   1.108   1_565  S
C3635      H3646   1.110       .  S
C3635      H3647   1.102       .  S
C3635      H3648   1.110       .  S
C3649      C3650   1.401       .  A
C3649      C3654   1.407       .  A
C3649      H3659   1.085       .  S
C3650      C3655   1.489       .  S
C3650      C3651   1.411       .  A
C3651      C3652   1.407       .  A
C3651      C3656   1.506       .  S
C3652      C3653   1.406       .  A
C3652      H3657   1.085       .  S
C3653      C3654   1.420       .  A
C3654      C3658   1.509       .  S
C3655      C3660   1.410       .  A
C3655      C3664   1.402       .  A
C3656      H3672   1.110       .  S
C3656      H3673   1.110       .  S
C3656      H3674   1.111       .  S
C3658      H3669   1.109       .  S
C3658      H3670   1.111       .  S
C3658      H3671   1.111       .  S
C3660      C3661   1.404       .  A
C3660      C3665   1.507       .  S
C3661      C3662   1.409       .  A
C3661      H3666   1.084       .  S
C3662      C3663   1.422       .  A
C3663      C3664   1.410       .  A
C3663      C3667   1.507       .  S
C3664      H3668   1.084       .  S
C3665      H3675   1.111       .  S
C3665      H3676   1.110       .  S
C3665      H3677   1.110       .  S
C3667      H3678   1.109       .  S
C3667      H3679   1.111       .  S
C3667      H3680   1.111       .  S
C3681      C3682   1.403       .  A
C3681      C3686   1.408       .  A
C3681      H3691   1.084       .  S
C3682      C3687   1.486       .  S
C3682      C3683   1.408       .  A
C3683      C3684   1.405       .  A
C3683      C3688   1.506       .  S
C3684      C3685   1.409       .  A
C3684      H3689   1.084   1_455  S
C3685      C3686   1.417       .  A
C3686      C3690   1.506       .  S
C3687      C3692   1.409       .  A
C3687      C3696   1.402       .  A
C3688      H3704   1.110       .  S
C3688      H3705   1.110       .  S
C3688      H3706   1.111   1_455  S
C3690      H3701   1.111       .  S
C3690      H3702   1.109       .  S
C3690      H3703   1.109       .  S
C3692      C3693   1.403       .  A
C3692      C3697   1.507       .  S
C3693      C3694   1.409       .  A
C3693      H3698   1.084       .  S
C3694      C3695   1.419       .  A
C3695      C3696   1.409       .  A
C3695      C3699   1.507       .  S
C3696      H3700   1.084       .  S
C3697      H3707   1.111       .  S
C3697      H3708   1.110       .  S
C3697      H3709   1.110       .  S
C3699      H3710   1.111       .  S
C3699      H3711   1.109       .  S
C3699      H3712   1.111       .  S
C3713      C3714   1.401       .  A
C3713      C3718   1.407       .  A
C3713      H3723   1.084       .  S
C3714      C3719   1.486       .  S
C3714      C3715   1.409       .  A
C3715      C3716   1.402       .  A
C3715      C3720   1.508       .  S
C3716      C3717   1.411       .  A
C3716      H3721   1.083       .  S
C3717      C3718   1.424       .  A
C3718      C3722   1.508       .  S
C3719      C3724   1.411       .  A
C3719      C3728   1.403       .  A
C3720      H3736   1.110       .  S
C3720      H3737   1.110       .  S
C3720      H3738   1.111       .  S
C3722      H3733   1.110       .  S
C3722      H3734   1.111       .  S
C3722      H3735   1.110       .  S
C3724      C3725   1.400       .  A
C3724      C3729   1.509       .  S
C3725      C3726   1.406       .  A
C3725      H3730   1.083       .  S
C3726      C3727   1.419       .  A
C3727      C3728   1.409       .  A
C3727      C3731   1.507       .  S
C3728      H3732   1.084       .  S
C3729      H3739   1.111       .  S
C3729      H3740   1.109       .  S
C3729      H3741   1.110       .  S
C3731      H3742   1.111       .  S
C3731      H3743   1.110       .  S
C3731      H3744   1.109       .  S
C3745      C3746   1.406       .  A
C3745      C3750   1.411       .  A
C3745      H3755   1.083       .  S
C3746      C3751   1.488       .  S
C3746      C3747   1.410       .  A
C3747      C3748   1.402       .  A
C3747      C3752   1.508       .  S
C3748      C3749   1.407       .  A
C3748      H3753   1.083       .  S
C3749      C3750   1.415       .  A
C3750      C3754   1.506       .  S
C3751      C3756   1.409       .  A
C3751      C3760   1.398       .  A
C3752      H3768   1.110       .  S
C3752      H3769   1.110       .  S
C3752      H3770   1.111       .  S
C3754      H3765   1.111       .  S
C3754      H3766   1.111       .  S
C3754      H3767   1.109       .  S
C3756      C3757   1.407       .  A
C3756      C3761   1.506       .  S
C3757      C3758   1.411       .  A
C3757      H3762   1.084       .  S
C3758      C3759   1.428       .  A
C3759      C3760   1.407       .  A
C3759      C3763   1.509   1_545  S
C3760      H3764   1.085       .  S
C3761      H3771   1.111       .  S
C3761      H3772   1.110       .  S
C3761      H3773   1.110       .  S
C3763      H3774   1.111       .  S
C3763      H3775   1.110       .  S
C3763      H3776   1.110       .  S
