geometry optimzed in LAMMPS
_audit_creation_date              2020-12-01 
_audit_creation_method            'lammps2cif' 
_symmetry_space_group_name_H-M    'P1' 
_symmetry_Int_Tables_number       1 
_symmetry_cell_setting            triclinic 
loop_ 
_symmetry_equiv_pos_as_xyz 
  x,y,z 
_cell_length_a                    91.46225171 
_cell_length_b                    36.50838201908596 
_cell_length_c                    44.99027884341524 
_cell_angle_alpha                 89.68970272411228 
_cell_angle_beta                  89.97305435187951 
_cell_angle_gamma                 90.03950739008306 
loop_ 
_atom_site_label 
_atom_site_type_symbol 
_atom_site_fract_x 
_atom_site_fract_y 
_atom_site_fract_z 
_atom_site_charge 
O1          O  0.77374941  0.76138889  0.67448512    -0.81400
C2          C  0.80353951  0.83079989  0.76439952     0.98000
O3          O  0.79875680  0.79928538  0.75869498    -0.70500
O4          O  0.78162685  0.74953271  0.73677753    -0.74100
Al5        Al  0.79761180  0.77808223  0.72078244     1.49000
C6          C  0.76848376  0.75768435  0.74230750     0.93300
O7          O  0.76070182  0.85146861  0.70881897    -0.80300
O8          O  0.78448649  0.87747062  0.67209349    -0.73800
Al9        Al  0.76887868  0.80729233  0.69290679     1.90100
O10         O  0.77941556  0.87685502  0.73148652    -0.72900
O11         O  0.81043829  0.84690065  0.68305383    -0.72800
O12         O  0.80544072  0.85378945  0.74363829    -0.78400
O13         O  0.81643134  0.79833773  0.70896325    -0.76600
O14         O  0.78690815  0.81502756  0.70665402    -1.12800
O15         O  0.79705741  0.75320145  0.68437057    -0.72000
C16         C  0.78564841  0.74419256  0.67051577     0.98800
C17         C  0.76593779  0.87495944  0.72640917     0.95200
Al18       Al  0.79435714  0.85988958  0.70726215     1.55600
O19         O  0.76254308  0.78396161  0.72871323    -0.76600
C20         C  0.82003974  0.82471002  0.69199107     0.99300
C21         C  0.77636755  0.86383351  0.65234861     0.94200
O22         O  0.77233622  0.83081210  0.65520162    -0.81900
O23         O  0.96917824  0.98662152  0.67926522    -0.81400
C24         C  0.94099052  0.90272627  0.76419485     0.98000
O25         O  0.94593379  0.93470069  0.76131498    -0.70500
O26         O  0.96272326  0.98779409  0.74202105    -0.74100
Al27       Al  0.94632899  0.96152518  0.72531787     1.49000
C28         C  0.97621080  0.98062764  0.74486733     0.93300
O29         O  0.98325270  0.89117874  0.70133947    -0.80300
O30         O  0.95887550  0.87114055  0.66737907    -0.73800
Al31       Al  0.97449700  0.93818924  0.69202899     1.90100
O32         O  0.96552163  0.86459158  0.72622289    -0.72900
O33         O  0.93331598  0.89756122  0.68304560    -0.72800
O34         O  0.93934974  0.88237639  0.74188286    -0.78400
O35         O  0.92738722  0.94200459  0.71292606    -0.76600
O36         O  0.95688377  0.92770446  0.70703303    -1.12800
O37         O  0.94593879  0.99217449  0.69151991    -0.72000
C38         C  0.95714596  0.00369697  0.67807126     0.98800
C39         C  0.97836289  0.86457670  0.71648441     0.95200
Al40       Al  0.94985393  0.88270753  0.70465692     1.55600
O41         O  0.98180599  0.95578705  0.72913683    -0.76600
C42         C  0.92362773  0.91762985  0.69439413     0.99300
C43         C  0.96578046  0.88882887  0.64763534     0.94200
O44         O  0.96960892  0.92144411  0.65281847    -0.81900
O45         O  0.77324655  0.98949866  0.06436099    -0.81400
C46         C  0.80169978  0.91685176  0.97595268     0.98000
O47         O  0.79807748  0.94908405  0.98223310    -0.70500
O48         O  0.78138657  0.00034947  0.00467719    -0.74100
Al49       Al  0.79715456  0.96988499  0.02028515     1.49000
C50         C  0.76805603  0.99340900  0.99923946     0.93300
O51         O  0.75892779  0.89986659  0.03350394    -0.80300
O52         O  0.78223641  0.87263978  0.06916644    -0.73800
Al53       Al  0.76798619  0.94377451  0.04754263     1.90100
O54         O  0.77679596  0.87332442  0.00933613    -0.72900
O55         O  0.80865065  0.89880884  0.05699912    -0.72800
O56         O  0.80305465  0.89320383  0.99650802    -0.78400
O57         O  0.81558645  0.94735201  0.03230042    -0.76600
O58         O  0.78579816  0.93400252  0.03394003    -1.12800
O59         O  0.79692947  0.99430035  0.05697388    -0.72000
C60         C  0.78535003  0.00497772  0.06939755     0.98800
C61         C  0.76347374  0.87618462  0.01543252     0.95200
Al62       Al  0.79220703  0.88828868  0.03323506     1.55600
O63         O  0.76213001  0.96600349  0.01132079    -0.76600
C64         C  0.81871343  0.92021521  0.04883335     0.99300
C65         C  0.77514034  0.88928952  0.08918800     0.94200
O66         O  0.77164103  0.92235370  0.08537326    -0.81900
O67         O  0.96212987  0.76200033  0.07054793    -0.81400
C68         C  0.93537622  0.84247487  0.97691402     0.98000
O69         O  0.93216014  0.81089757  0.98603072    -0.70500
O70         O  0.95436551  0.76464888  0.98510515    -0.74100
Al71       Al  0.94029830  0.77919133  0.01483807     1.49000
C72         C  0.96731736  0.75386825  0.98974595     0.93300
O73         O  0.98011514  0.83114964  0.01917213    -0.80300
O74         O  0.95064954  0.86188067  0.07600403    -0.73800
Al75       Al  0.97005286  0.79766422  0.04424502     1.90100
O76         O  0.96554835  0.87834883  0.02536831    -0.72900
O77         O  0.92722730  0.84926036  0.04365022    -0.72800
O78         O  0.94294348  0.86339106  0.99288354    -0.78400
O79         O  0.92459736  0.78948950  0.04191178    -0.76600
O80         O  0.95240602  0.81196104  0.03131347    -1.12800
O81         O  0.94579450  0.73984890  0.03969974    -0.72000
C82         C  0.95380148  0.73647654  0.06226473     0.98800
C83         C  0.97744226  0.86483890  0.01679794     0.95200
Al84       Al  0.94702765  0.85895563  0.03425066     1.55600
O85         O  0.97344368  0.76165914  0.01406607    -0.76600
C86         C  0.91969210  0.82091394  0.04823700     0.99300
C87         C  0.96236217  0.85325405  0.08909774     0.94200
O88         O  0.97103320  0.83064737  0.07734116    -0.81900
O89         O  0.02133624  0.57092134  0.83384906    -0.81400
C90         C  0.05532672  0.57575993  0.72815633     0.98000
O91         O  0.05645143  0.59847371  0.74928037    -0.70500
O92         O  0.03048422  0.62123805  0.76077613    -0.74100
Al93       Al  0.04490030  0.60310338  0.78549206     1.49000
C94         C  0.01689998  0.61923438  0.76402716     0.93300
O95         O  0.01449104  0.52700933  0.75819913    -0.80300
O96         O  0.04779259  0.49707970  0.80818185    -0.73800
Al97       Al  0.01931390  0.54913584  0.79538899     1.90100
O98         O  0.03372026  0.49186829  0.75474256    -0.72900
O99         O  0.06748995  0.54294769  0.78430052    -0.72800
O100        O  0.05078015  0.54374347  0.73357247    -0.78400
O101        O  0.06068530  0.58975648  0.81049005    -0.76600
O102        O  0.03768619  0.55812145  0.78445717    -1.12800
O103        O  0.03428139  0.61842936  0.82073570    -0.72000
C104        C  0.02550112  0.60337895  0.83882522     0.98800
C105        C  0.02090485  0.50001052  0.74673839     0.95200
Al106      Al  0.04902937  0.52188765  0.77151668     1.55600
O107        O  0.01122196  0.59382844  0.77934043    -0.76600
C108        C  0.07074656  0.56922276  0.80137414     0.99300
C109        C  0.03597605  0.48649633  0.81991460     0.94200
O110        O  0.02403244  0.50270000  0.81376602    -0.81900
O111        O  0.22319199  0.65747620  0.81677919    -0.81400
C112        C  0.18925761  0.65660815  0.71224703     0.98000
O113        O  0.18792663  0.63312840  0.73299656    -0.70500
O114        O  0.21405967  0.61102784  0.74194879    -0.74100
Al115      Al  0.20010714  0.62683974  0.76808464     1.49000
C116        C  0.22767268  0.61295862  0.74442857     0.93300
O117        O  0.23064057  0.70463470  0.74291333    -0.80300
O118        O  0.19681335  0.73082187  0.79284819    -0.73800
Al119      Al  0.22550426  0.68064547  0.77906384     1.90100
O120        O  0.21139640  0.73973755  0.73953089    -0.72900
O121        O  0.17729600  0.68582726  0.76898415    -0.72800
O122        O  0.19396644  0.68821056  0.71785280    -0.78400
O123        O  0.18498975  0.63883108  0.79459047    -0.76600
O124        O  0.20722062  0.67191781  0.76781678    -1.12800
O125        O  0.21113371  0.60947415  0.80207076    -0.72000
C126        C  0.21926139  0.62472786  0.82103904     0.98800
C127        C  0.22460060  0.73298275  0.73276615     0.95200
Al128      Al  0.19577048  0.70826612  0.75585744     1.55600
O129        O  0.23354534  0.63651391  0.76129876    -0.76600
C130        C  0.17467185  0.65930113  0.78667263     0.99300
C131        C  0.20849461  0.74221138  0.80423593     0.94200
O132        O  0.22063275  0.72660611  0.79853856    -0.81900
O133        O  0.02276808  0.67505980  0.40403196    -0.81400
C134        C  0.05265725  0.65319761  0.51369269     0.98000
O135        O  0.05387020  0.63281409  0.49125500    -0.70500
O136        O  0.02697671  0.61853216  0.47857942    -0.74100
Al137      Al  0.04252175  0.63387084  0.45493664     1.49000
C138        C  0.01441145  0.61747588  0.46759902     0.93300
O139        O  0.01265015  0.70963107  0.48168340    -0.80300
O140        O  0.04842333  0.74183642  0.43982071    -0.73800
Al141      Al  0.01882313  0.69178150  0.44379689     1.90100
O142        O  0.03253299  0.74079752  0.49168955    -0.72900
O143        O  0.06639308  0.69038429  0.46041815    -0.72800
O144        O  0.04854252  0.68590663  0.51064395    -0.78400
O145        O  0.05868478  0.64635967  0.43172839    -0.76600
O146        O  0.03652337  0.67955981  0.45728021    -1.12800
O147        O  0.03233577  0.62284907  0.41809417    -0.72000
C148        C  0.02557416  0.64175792  0.39880728     0.98800
C149        C  0.01910914  0.73440727  0.49625531     0.95200
Al150      Al  0.04810281  0.71225058  0.47422039     1.55600
O151        O  0.00951136  0.64467863  0.45305361    -0.76600
C152        C  0.06899310  0.66574789  0.44122097     0.99300
C153        C  0.03716343  0.75514593  0.42775489     0.94200
O154        O  0.02470284  0.74031792  0.43110064    -0.81900
O155        O  0.21882724  0.57061182  0.39516676    -0.81400
C156        C  0.18767870  0.57127537  0.50376513     0.98000
O157        O  0.18651003  0.59582916  0.48382997    -0.70500
O158        O  0.21266091  0.61702520  0.47184362    -0.74100
Al159      Al  0.19756184  0.60223069  0.44736303     1.49000
C160        C  0.22602838  0.61513725  0.46600267     0.93300
O161        O  0.22773958  0.52328121  0.46890951    -0.80300
O162        O  0.19292958  0.49803490  0.42116311    -0.73800
Al163      Al  0.22206988  0.54721632  0.43275096     1.90100
O164        O  0.20827329  0.48900666  0.47331680    -0.72900
O165        O  0.17445085  0.54316654  0.44762168    -0.72800
O166        O  0.19179153  0.53957666  0.49698030    -0.78400
O167        O  0.18131986  0.59192184  0.42302387    -0.76600
O168        O  0.20416579  0.55669449  0.44600420    -1.12800
O169        O  0.20773988  0.61925984  0.41204164    -0.72000
C170        C  0.21528610  0.60386134  0.39202239     0.98800
C171        C  0.22142943  0.49565050  0.48002933     0.95200
Al172      Al  0.19276324  0.52042524  0.45856660     1.55600
O173        O  0.23092264  0.59115635  0.44838313    -0.76600
C174        C  0.17133401  0.57055295  0.43144103     0.99300
C175        C  0.20442539  0.48580815  0.40952256     0.94200
O176        O  0.21665219  0.50124025  0.41445958    -0.81900
O177        O  0.71822375  0.17395599  0.83539060    -0.81400
C178        C  0.68618128  0.16035477  0.72774211     0.98000
O179        O  0.68538841  0.13808783  0.74943561    -0.70500
O180        O  0.71142287  0.11690333  0.76323865    -0.74100
Al181      Al  0.69647931  0.13622604  0.78635000     1.49000
C182        C  0.72451377  0.11666278  0.77141707     0.93300
O183        O  0.72777282  0.20711925  0.75733484    -0.80300
O184        O  0.69408259  0.24475014  0.80298831    -0.73800
Al185      Al  0.72192675  0.19028385  0.79566349     1.90100
O186        O  0.70899282  0.24286081  0.74973699    -0.72900
O187        O  0.67416789  0.19759725  0.78194827    -0.72800
O188        O  0.69096014  0.19228818  0.73154144    -0.78400
O189        O  0.68045694  0.15099233  0.80968702    -0.76600
O190        O  0.70373415  0.18103854  0.78357337    -1.12800
O191        O  0.70650717  0.12389531  0.82319611    -0.72000
C192        C  0.71432225  0.14158061  0.84153790     0.98800
C193        C  0.72199732  0.23371716  0.74360993     0.95200
Al194      Al  0.69289004  0.21659792  0.76802711     1.55600
O195        O  0.72986744  0.14308684  0.78572884    -0.76600
C196        C  0.67072666  0.17217110  0.80000088     0.99300
C197        C  0.70600155  0.25602395  0.81369768     0.94200
O198        O  0.71784849  0.23919331  0.80875576    -0.81900
O199        O  0.51939152  0.06882572  0.83772186    -0.81400
C200        C  0.55037159  0.09184090  0.73054647     0.98000
O201        O  0.55122518  0.11247069  0.75295734    -0.70500
O202        O  0.52442158  0.12707793  0.76592919    -0.74100
Al203      Al  0.53984943  0.11088866  0.78922412     1.49000
C204        C  0.51106593  0.12168219  0.77067540     0.93300
O205        O  0.51133501  0.03151784  0.76109041    -0.80300
O206        O  0.54676352  0.00289042  0.80497949    -0.73800
Al207      Al  0.51662659  0.05078900  0.79851429     1.90100
O208        O  0.53159889  0.00209921  0.75175553    -0.72900
O209        O  0.56440117  0.05599763  0.78387833    -0.72800
O210        O  0.54687300  0.05862378  0.73355439    -0.78400
O211        O  0.55618334  0.09896334  0.81281634    -0.76600
O212        O  0.53429302  0.06456942  0.78615690    -1.12800
O213        O  0.52933986  0.12089927  0.82542318    -0.72000
C214        C  0.52221866  0.10166248  0.84391175     0.98800
C215        C  0.51819467  0.00787160  0.74646946     0.95200
Al216      Al  0.54648058  0.03238683  0.77002440     1.55600
O217        O  0.50679181  0.09480190  0.78619489    -0.76600
C218        C  0.56681424  0.08127606  0.80258237     0.99300
C219        C  0.53545142  0.98988964  0.81730003     0.94200
O220        O  0.52299502  0.00412632  0.81306497    -0.81900
O221        O  0.71738793  0.07179950  0.40184536    -0.81400
C222        C  0.68841012  0.09961957  0.51200510     0.98000
O223        O  0.68737017  0.11952754  0.48884015    -0.70500
O224        O  0.71259473  0.13867446  0.46694615    -0.74100
Al225      Al  0.69660870  0.11530085  0.44968557     1.49000
C226        C  0.72586170  0.13461348  0.46086627     0.93300
O227        O  0.72835476  0.04320774  0.48081241    -0.80300
O228        O  0.69260650  0.00426236  0.44396756    -0.73800
Al229      Al  0.72145563  0.05836580  0.44238734     1.90100
O230        O  0.70905896  0.01209769  0.49454561    -0.72900
O231        O  0.67374324  0.05654633  0.46354301    -0.72800
O232        O  0.69243678  0.06679335  0.51028275    -0.78400
O233        O  0.67952006  0.09816261  0.43108221    -0.76600
O234        O  0.70371055  0.07052526  0.45592024    -1.12800
O235        O  0.70473488  0.12121880  0.41008403    -0.72000
C236        C  0.71250633  0.10217198  0.39268818     0.98800
C237        C  0.72254062  0.01908491  0.49722083     0.95200
Al238      Al  0.69288108  0.03774453  0.47607829     1.55600
O239        O  0.73053377  0.10535026  0.44941669    -0.76600
C240        C  0.66980380  0.08019799  0.44444851     0.99300
C241        C  0.70402525  0.99165619  0.43189987     0.94200
O242        O  0.71596469  0.00923853  0.43234930    -0.81900
O243        O  0.51830900  0.17091540  0.40879986    -0.81400
C244        C  0.54997611  0.17433806  0.51791678     0.98000
O245        O  0.55130584  0.15043496  0.49788535    -0.70500
O246        O  0.52531754  0.12746567  0.48737057    -0.74100
Al247      Al  0.54022734  0.14264343  0.46189640     1.49000
C248        C  0.51280902  0.12176154  0.47713443     0.93300
O249        O  0.50779054  0.21359315  0.48348635    -0.80300
O250        O  0.54143166  0.24748121  0.43536237    -0.73800
Al251      Al  0.51414851  0.19228073  0.44677490     1.90100
O252        O  0.52612741  0.25200673  0.48813627    -0.72900
O253        O  0.56187893  0.20521651  0.46059717    -0.72800
O254        O  0.54470219  0.20521621  0.51136374    -0.78400
O255        O  0.55631891  0.15481029  0.43734772    -0.76600
O256        O  0.53244993  0.18661992  0.45995687    -1.12800
O257        O  0.53041679  0.12381706  0.42631601    -0.72000
C258        C  0.52262115  0.13816414  0.40594779     0.98800
C259        C  0.51333176  0.24175873  0.49526655     0.95200
Al260      Al  0.54273571  0.22461713  0.47257994     1.55600
O261        O  0.50683301  0.14537838  0.46055399    -0.76600
C262        C  0.56586065  0.17770428  0.44539894     0.99300
C263        C  0.52961386  0.25583816  0.42265997     0.94200
O264        O  0.51782233  0.23930464  0.42908174    -0.81900
O265        O  0.72295770  0.67266295  0.33701145    -0.81400
C266        C  0.69029487  0.65808143  0.23080140     0.98000
O267        O  0.68980746  0.63573535  0.25230367    -0.70500
O268        O  0.71683258  0.62136784  0.26123395    -0.74100
Al269      Al  0.70197492  0.63408009  0.28738669     1.49000
C270        C  0.72980420  0.62054276  0.26996077     0.93300
O271        O  0.73024903  0.71303790  0.26012380    -0.80300
O272        O  0.69581000  0.73913709  0.30900354    -0.73800
Al273      Al  0.72554070  0.69235153  0.29792124     1.90100
O274        O  0.71018201  0.74499580  0.25530015    -0.72900
O275        O  0.67742246  0.68871051  0.28661710    -0.72800
O276        O  0.69409726  0.69080897  0.23525601    -0.78400
O277        O  0.68625369  0.64373092  0.31301292    -0.76600
O278        O  0.70757375  0.68009972  0.28639421    -1.12800
O279        O  0.71329930  0.62092036  0.32247110    -0.72000
C280        C  0.72051737  0.63901459  0.34149315     0.98800
C281        C  0.72336942  0.73920404  0.24803114     0.95200
Al282      Al  0.69529273  0.71348576  0.27279677     1.55600
O283        O  0.73490966  0.64661335  0.28534054    -0.76600
C284        C  0.67536445  0.66149374  0.30395821     0.99300
C285        C  0.70723900  0.75344769  0.31951362     0.94200
O286        O  0.71969966  0.73971596  0.31363997    -0.81900
O287        O  0.52512838  0.57365503  0.32861907    -0.81400
C288        C  0.56069588  0.57966144  0.22645887     0.98000
O289        O  0.56313961  0.59895439  0.24927147    -0.70500
O290        O  0.53846752  0.62981540  0.25951148    -0.74100
Al291      Al  0.55078071  0.60379381  0.28437436     1.49000
C292        C  0.52528162  0.63535546  0.26496382     0.93300
O293        O  0.51661375  0.54577077  0.24887324    -0.80300
O294        O  0.54659530  0.49623065  0.29874698    -0.73800
Al295      Al  0.52210773  0.56009845  0.28822987     1.90100
O296        O  0.53351184  0.50390994  0.24402269    -0.72900
O297        O  0.56968368  0.53658820  0.28044834    -0.72800
O298        O  0.55423761  0.54933190  0.22879611    -0.78400
O299        O  0.56422112  0.58159343  0.30991761    -0.76600
O300        O  0.54100168  0.56272176  0.27912877    -1.12800
O301        O  0.54023608  0.61888588  0.31967537    -0.72000
C302        C  0.53094036  0.60339561  0.33640487     0.98800
C303        C  0.52131136  0.51721996  0.23623390     0.95200
Al304      Al  0.55031739  0.52433418  0.26433708     1.55600
O305        O  0.51759941  0.61064676  0.27737672    -0.76600
C306        C  0.57349578  0.55946111  0.30019549     0.99300
C307        C  0.53379893  0.48928192  0.30777154     0.94200
O308        O  0.52306959  0.50993220  0.30156171    -0.81900
O309        O  0.72103467  0.57472007  0.90809755    -0.81400
C310        C  0.69068895  0.58062444  0.01761327     0.98000
O311        O  0.68894110  0.60316020  0.99641430    -0.70500
O312        O  0.71464072  0.62676773  0.98305828    -0.74100
Al313      Al  0.69980156  0.60811119  0.95946205     1.49000
C314        C  0.72729398  0.63040125  0.97290088     0.93300
O315        O  0.73253070  0.53984057  0.98419881    -0.80300
O316        O  0.69860499  0.50052867  0.93964880    -0.73800
Al317      Al  0.72576825  0.55734308  0.94684363     1.90100
O318        O  0.71444484  0.50178779  0.99224070    -0.72900
O319        O  0.67830865  0.54481242  0.96280396    -0.72800
O320        O  0.69590031  0.54941316  0.01254109    -0.78400
O321        O  0.68398746  0.59312719  0.93624393    -0.76600
O322        O  0.70766404  0.56403534  0.96031590    -1.12800
O323        O  0.70942238  0.62370664  0.92252397    -0.72000
C324        C  0.71720712  0.60742256  0.90323097     0.98800
C325        C  0.72744316  0.51221677  0.99758953     0.95200
Al326      Al  0.69757334  0.52692852  0.97544059     1.55600
O327        O  0.73304821  0.60549393  0.95738756    -0.76600
C328        C  0.67458202  0.57048244  0.94514885     0.99300
C329        C  0.71051083  0.49064283  0.92806277     0.94200
O330        O  0.72224355  0.50822846  0.93263363    -0.81900
O331        O  0.52461308  0.66815386  0.90987053    -0.81400
C332        C  0.55928695  0.65538832  0.01471414     0.98000
O333        O  0.55972470  0.63422110  0.99261268    -0.70500
O334        O  0.53320357  0.61310258  0.98350690    -0.74100
Al335      Al  0.54731027  0.63176927  0.95778380     1.49000
C336        C  0.52013995  0.61013869  0.97558110     0.93300
O337        O  0.51600013  0.70002640  0.98822930    -0.80300
O338        O  0.54857299  0.74083825  0.94075447    -0.73800
Al339      Al  0.52137820  0.68395446  0.94981167     1.90100
O340        O  0.53474903  0.73655068  0.99539430    -0.72900
O341        O  0.56939843  0.69359994  0.95913628    -0.72800
O342        O  0.55381262  0.68684243  0.01169359    -0.78400
O343        O  0.56233969  0.64712998  0.93237136    -0.76600
O344        O  0.53987024  0.67605358  0.96068064    -1.12800
O345        O  0.53634839  0.61819768  0.92233620    -0.72000
C346        C  0.52846215  0.63576472  0.90390820     0.98800
C347        C  0.52180095  0.72657458  0.00165295     0.95200
Al348      Al  0.55078610  0.71178445  0.97538628     1.55600
O349        O  0.51407845  0.63543220  0.96068035    -0.76600
C350        C  0.57238214  0.66809306  0.94088123     0.99300
C351        C  0.53633483  0.75182939  0.93124251     0.94200
O352        O  0.52479454  0.73360572  0.93632724    -0.81900
O353        O  0.27594079  0.74790953  0.17316095    -0.81400
C354        C  0.30710563  0.83014236  0.25207336     0.98000
O355        O  0.30168821  0.79837806  0.25049622    -0.70500
O356        O  0.28355191  0.74610370  0.23308115    -0.74100
Al357      Al  0.30040158  0.77046265  0.21538922     1.49000
C358        C  0.27059765  0.75683010  0.23798792     0.93300
O359        O  0.26514742  0.84704251  0.19302713    -0.80300
O360        O  0.29049285  0.85749308  0.15197137    -0.73800
Al361      Al  0.27219119  0.79800476  0.18465968     1.90100
O362        O  0.28487254  0.87471510  0.20900244    -0.72900
O363        O  0.31468107  0.82634072  0.16952608    -0.72800
O364        O  0.30923788  0.84913179  0.22865584    -0.78400
O365        O  0.32006946  0.78649334  0.20344084    -0.76600
O366        O  0.29046000  0.80577320  0.19666842    -1.12800
O367        O  0.29959132  0.73993202  0.18158494    -0.72000
C368        C  0.28769887  0.72986448  0.16979678     0.98800
C369        C  0.27148999  0.87501018  0.20345788     0.95200
Al370      Al  0.29919645  0.84817004  0.19017426     1.55600
O371        O  0.26574012  0.78386128  0.22350940    -0.76600
C372        C  0.32423579  0.80871504  0.18346225     0.99300
C373        C  0.28156698  0.84086391  0.13545486     0.94200
O374        O  0.27584604  0.81130736  0.14433902    -0.81900
O375        O  0.46627685  0.98023488  0.16545486    -0.81400
C376        C  0.44519754  0.88742575  0.25665547     0.98000
O377        O  0.44084255  0.91952336  0.25145627    -0.70500
O378        O  0.46146254  0.96910387  0.25118791    -0.74100
Al379      Al  0.44660876  0.95544407  0.22319047     1.49000
C380        C  0.47412110  0.98128442  0.24584159     0.93300
O381        O  0.48635451  0.90841100  0.21066306    -0.80300
O382        O  0.45501318  0.88354417  0.15431577    -0.73800
Al383      Al  0.47549634  0.94314926  0.18846068     1.90100
O384        O  0.47271898  0.86095970  0.19915600    -0.72900
O385        O  0.43337823  0.88706430  0.19223962    -0.72800
O386        O  0.45184422  0.86904659  0.23732749    -0.78400
O387        O  0.42979126  0.94578443  0.19881057    -0.76600
O388        O  0.45845951  0.92613395  0.20252704    -1.12800
O389        O  0.45031452  0.99738707  0.19928595    -0.72000
C390        C  0.45753395  0.00370981  0.17586946     0.98800
C391        C  0.48425187  0.87439153  0.20963071     0.95200
Al392      Al  0.45359295  0.87935258  0.19627054     1.55600
O393        O  0.47956950  0.97703062  0.22031120    -0.76600
C394        C  0.42515796  0.91454097  0.19133282     0.99300
C395        C  0.46695539  0.89050791  0.14147181     0.94200
O396        O  0.47597679  0.91223248  0.15343067    -0.81900
O397        O  0.27789355  0.98096585  0.54518851    -0.81400
C398        C  0.30807340  0.89638441  0.46648306     0.98000
O399        O  0.30339106  0.92879601  0.46848141    -0.70500
O400        O  0.28629570  0.98280952  0.48584617    -0.74100
Al401      Al  0.30230643  0.95602964  0.50382663     1.49000
C402        C  0.27332774  0.97368052  0.47965851     0.93300
O403        O  0.26527384  0.88310188  0.52373739    -0.80300
O404        O  0.29008842  0.86981643  0.56640524    -0.73800
Al405      Al  0.27316690  0.93149771  0.53276094     1.90100
O406        O  0.28470136  0.85323881  0.50900583    -0.72900
O407        O  0.31521071  0.89783509  0.54942537    -0.72800
O408        O  0.30959135  0.87659145  0.48972573    -0.78400
O409        O  0.32147481  0.93780019  0.51616238    -0.76600
O410        O  0.29145457  0.92165652  0.52166920    -1.12800
O411        O  0.30176274  0.98563040  0.53803725    -0.72000
C412        C  0.29007157  0.99686160  0.54991265     0.98800
C413        C  0.27130170  0.85410364  0.51431351     0.95200
Al414      Al  0.29934914  0.87828295  0.52824362     1.55600
O415        O  0.26745944  0.94736354  0.49363196    -0.76600
C416        C  0.32509877  0.91536913  0.53633134     0.99300
C417        C  0.28096040  0.88694652  0.58224278     0.94200
O418        O  0.27589569  0.91713097  0.57316151    -0.81900
O419        O  0.47527400  0.75592681  0.56339767    -0.81400
C420        C  0.44521489  0.81528007  0.47048084     0.98000
O421        O  0.44951213  0.78457212  0.47962202    -0.70500
O422        O  0.46725646  0.73850690  0.50579388    -0.74100
Al423      Al  0.45081654  0.76857356  0.51902720     1.49000
C424        C  0.48025755  0.74727853  0.49870007     0.93300
O425        O  0.48748724  0.84440031  0.52630573    -0.80300
O426        O  0.46398490  0.87206344  0.55983255    -0.73800
Al427      Al  0.47947795  0.80088608  0.54339881     1.90100
O428        O  0.46928796  0.86544025  0.49972573    -0.72900
O429        O  0.43793473  0.84197270  0.54980720    -0.72800
O430        O  0.44343585  0.84136607  0.48868162    -0.78400
O431        O  0.43191238  0.79027513  0.52867847    -0.76600
O432        O  0.46145110  0.80706490  0.52945620    -1.12800
O433        O  0.45149742  0.74891569  0.55771182    -0.72000
C434        C  0.46339154  0.74021930  0.57001212     0.98800
C435        C  0.48249764  0.86603258  0.50687442     0.95200
Al436      Al  0.45419931  0.85161305  0.52507480     1.55600
O437        O  0.48562027  0.77642666  0.50870436    -0.76600
C438        C  0.42832882  0.81892020  0.54279650     0.99300
C439        C  0.47150108  0.85872390  0.58098428     0.94200
O440        O  0.47544951  0.82556458  0.57968515    -0.81900
O441        O  0.77464060  0.26114915  0.17824024    -0.81400
C442        C  0.80503060  0.32591046  0.26870006     0.98000
O443        O  0.80007175  0.29487707  0.26194813    -0.70500
O444        O  0.78238811  0.24672062  0.23825956    -0.74100
Al445      Al  0.79881112  0.27583762  0.22342850     1.49000
C446        C  0.76906391  0.25443471  0.24302331     0.93300
O447        O  0.76228849  0.35095449  0.21265069    -0.80300
O448        O  0.78594464  0.37716284  0.17793351    -0.73800
Al449      Al  0.77025341  0.30677534  0.19654714     1.90100
O450        O  0.78074609  0.37361928  0.23775576    -0.72900
O451        O  0.81157389  0.34667254  0.18803634    -0.72800
O452        O  0.80672008  0.35009383  0.24878773    -0.78400
O453        O  0.81774451  0.29674985  0.21208222    -0.76600
O454        O  0.78821444  0.31349036  0.21072924    -1.12800
O455        O  0.79822930  0.25317902  0.18612094    -0.72000
C456        C  0.78641404  0.24391900  0.17393051     0.98800
C457        C  0.76737661  0.37299953  0.23159853     0.95200
Al458      Al  0.79565000  0.35818067  0.21280107     1.55600
O459        O  0.76356925  0.28284464  0.23161688    -0.76600
C460        C  0.82120413  0.32400959  0.19581206     0.99300
C461        C  0.77867032  0.36308592  0.15705007     0.94200
O462        O  0.77448678  0.33019685  0.15944450    -0.81900
O463        O  0.97257601  0.47977828  0.17207115    -0.81400
C464        C  0.94053542  0.41883730  0.26221675     0.98000
O465        O  0.94578688  0.44974193  0.25550456    -0.70500
O466        O  0.96379659  0.49701650  0.23038474    -0.74100
Al467      Al  0.94746778  0.46814087  0.21609678     1.49000
C468        C  0.97662816  0.48821873  0.23826073     0.93300
O469        O  0.98333079  0.38865613  0.21051263    -0.80300
O470        O  0.96010516  0.36516402  0.17322914    -0.73800
Al471      Al  0.97631213  0.43436770  0.19271632     1.90100
O472        O  0.96366627  0.37153341  0.23390435    -0.72900
O473        O  0.93437271  0.39859766  0.18079875    -0.72800
O474        O  0.93798872  0.39560111  0.24207552    -0.78400
O475        O  0.92833503  0.44795300  0.20491718    -0.76600
O476        O  0.95782584  0.42964895  0.20471723    -1.12800
O477        O  0.94886033  0.48930793  0.17807952    -0.72000
C478        C  0.96080033  0.49609079  0.16493008     0.98800
C479        C  0.97683347  0.36645968  0.22776956     0.95200
Al480      Al  0.94971409  0.38611566  0.20703316     1.55600
O481        O  0.98206804  0.45896645  0.22835097    -0.76600
C482        C  0.92459373  0.42057075  0.18932813     0.99300
C483        C  0.96858843  0.37743575  0.15323984     0.94200
O484        O  0.97320494  0.40999038  0.15548950    -0.81900
O485        O  0.77897729  0.47422861  0.57617072    -0.81400
C486        C  0.80622866  0.39949677  0.48179688     0.98000
O487        O  0.80812640  0.43270380  0.48826470    -0.70500
O488        O  0.78777432  0.48154671  0.49431406    -0.74100
Al489      Al  0.80222870  0.46216093  0.52072881     1.49000
C490        C  0.77442517  0.48819747  0.49792172     0.93300
O491        O  0.76438928  0.40340701  0.52127545    -0.80300
O492        O  0.79322477  0.37896165  0.58405564    -0.73800
Al493      Al  0.77248220  0.43798120  0.54870766     1.90100
O494        O  0.77954443  0.35900986  0.53303518    -0.72900
O495        O  0.81663913  0.39237595  0.55145673    -0.72800
O496        O  0.80189908  0.37654241  0.50094718    -0.78400
O497        O  0.81956356  0.45067722  0.54291718    -0.76600
O498        O  0.79084317  0.42744675  0.53732438    -1.12800
O499        O  0.79746375  0.49705752  0.54998153    -0.72000
C500        C  0.78826482  0.49931412  0.57091417     0.98800
C501        C  0.76831971  0.37029766  0.51983218     0.95200
Al502      Al  0.79733659  0.38123900  0.54203405     1.55600
O503        O  0.76806586  0.47500805  0.52015686    -0.76600
C504        C  0.82451542  0.42027767  0.55155853     0.99300
C505        C  0.78028529  0.38183902  0.59359919     0.94200
O506        O  0.77141373  0.40281154  0.58044831    -0.81900
O507        O  0.97166947  0.25649915  0.55734030    -0.81400
C508        C  0.93986120  0.33133464  0.47299965     0.98000
O509        O  0.94436363  0.29915570  0.47767425    -0.70500
O510        O  0.96141694  0.24636893  0.49745789    -0.74100
Al511      Al  0.94652606  0.27669933  0.51534995     1.49000
C512        C  0.97459174  0.25200231  0.49041149     0.93300
O513        O  0.98499373  0.34551265  0.52172819    -0.80300
O514        O  0.96302501  0.37334443  0.56274362    -0.73800
Al515      Al  0.97667735  0.30196615  0.53864717     1.90100
O516        O  0.96592650  0.37382062  0.50260043    -0.72900
O517        O  0.93664558  0.34522319  0.55553237    -0.72800
O518        O  0.93927429  0.35366876  0.49434040    -0.78400
O519        O  0.92857137  0.29885118  0.53007333    -0.76600
O520        O  0.95840276  0.31203047  0.52784467    -1.12800
O521        O  0.94796711  0.25090838  0.55152404    -0.72000
C522        C  0.95982569  0.23998662  0.56297053     0.98800
C523        C  0.97949755  0.36994771  0.50516524     0.95200
Al524      Al  0.95175089  0.35761122  0.52890384     1.55600
O525        O  0.98134262  0.27840582  0.50209085    -0.76600
C526        C  0.92617895  0.32487950  0.54794264     0.99300
C527        C  0.97116446  0.35728219  0.58130483     0.94200
O528        O  0.97491185  0.32447448  0.57678943    -0.81900
O529        O  0.02254763  0.07304589  0.32615725    -0.81400
C530        C  0.05175249  0.08075088  0.21409137     0.98000
O531        O  0.05054175  0.10575282  0.23307870    -0.70500
O532        O  0.02368469  0.12107407  0.24804611    -0.74100
Al533      Al  0.04046234  0.10872491  0.27027333     1.49000
C534        C  0.01075643  0.11690806  0.25706351     0.93300
O535        O  0.01158720  0.02658255  0.25385788    -0.80300
O536        O  0.04750294  0.00012457  0.29518249    -0.73800
Al537      Al  0.01810701  0.05001299  0.28895317     1.90100
O538        O  0.03175361  0.99735453  0.24227422    -0.72900
O539        O  0.06517513  0.05053649  0.27172440    -0.72800
O540        O  0.04881063  0.04812537  0.22066878    -0.78400
O541        O  0.05782214  0.10157454  0.29192573    -0.76600
O542        O  0.03535625  0.06182210  0.27274384    -1.12800
O543        O  0.03146007  0.12327168  0.30698659    -0.72000
C544        C  0.02552247  0.10681616  0.32858053     0.98800
C545        C  0.01817439  0.00274052  0.23869353     0.95200
Al546      Al  0.04727902  0.02702339  0.25884841     1.55600
O547        O  0.00772628  0.09224356  0.27566956    -0.76600
C548        C  0.06795978  0.07949596  0.28614667     0.99300
C549        C  0.03631753  0.98860506  0.30864526     0.94200
O550        O  0.02428797  0.00485202  0.30574509    -0.81900
O551        O  0.22018665  0.15956324  0.32312900    -0.81400
C552        C  0.18735053  0.14882139  0.21487803     0.98000
O553        O  0.18675338  0.12704026  0.23677299    -0.70500
O554        O  0.21365246  0.10887984  0.24812462    -0.74100
Al555      Al  0.19869635  0.12522373  0.27239069     1.49000
C556        C  0.22710082  0.11246330  0.25310523     0.93300
O557        O  0.22959173  0.20332843  0.24827895    -0.80300
O558        O  0.19472788  0.23488981  0.28844974    -0.73800
Al559      Al  0.22333047  0.18131517  0.28443484     1.90100
O560        O  0.20962014  0.23232926  0.23576984    -0.72900
O561        O  0.17601791  0.18483950  0.26913699    -0.72800
O562        O  0.19268014  0.18017310  0.21827628    -0.78400
O563        O  0.18280532  0.13825433  0.29689796    -0.76600
O564        O  0.20544243  0.17088404  0.27077272    -1.12800
O565        O  0.20925783  0.11065727  0.30731649    -0.72000
C566        C  0.21703881  0.12602702  0.32666880     0.98800
C567        C  0.22312275  0.22678499  0.23253124     0.95200
Al568      Al  0.19419167  0.20525186  0.25452279     1.55600
O569        O  0.23200265  0.13717260  0.27002361    -0.76600
C570        C  0.17291569  0.15914156  0.28720439     0.99300
C571        C  0.20604596  0.24597979  0.30152069     0.94200
O572        O  0.21786908  0.22795670  0.30057196    -0.81900
O573        O  0.02540776  0.16352893  0.90743958    -0.81400
C574        C  0.06274516  0.14987562  0.00745666     0.98000
O575        O  0.06398815  0.13172074  0.98371083    -0.70500
O576        O  0.03866415  0.10354975  0.97405239    -0.74100
Al577      Al  0.05115971  0.13010101  0.94963039     1.49000
C578        C  0.02530302  0.09973280  0.96911707     0.93300
O579        O  0.01782074  0.19103051  0.98785637    -0.80300
O580        O  0.04879124  0.23914603  0.94054174    -0.73800
Al581      Al  0.02315686  0.17677439  0.94828557     1.90100
O582        O  0.03573246  0.22952748  0.99530066    -0.72900
O583        O  0.07133163  0.19465416  0.95582123    -0.72800
O584        O  0.05614933  0.18015829  0.00763950    -0.78400
O585        O  0.06478044  0.15277009  0.92435558    -0.76600
O586        O  0.04205225  0.17173803  0.95701229    -1.12800
O587        O  0.04004816  0.11735592  0.91476497    -0.72000
C588        C  0.03040673  0.13308476  0.89916714     0.98800
C589        C  0.02286895  0.21856815  0.00130742     0.95200
Al590      Al  0.05217075  0.20811525  0.97335054     1.55600
O591        O  0.01787935  0.12626090  0.95855824    -0.76600
C592        C  0.07469966  0.17229580  0.93525196     0.99300
C593        C  0.03623974  0.24768008  0.93109106     0.94200
O594        O  0.02519246  0.22728232  0.93559726    -0.81900
O595        O  0.22220269  0.05874953  0.89252471    -0.81400
C596        C  0.19575925  0.07823352  0.00513538     0.98000
O597        O  0.19475021  0.10013525  0.98344302    -0.70500
O598        O  0.22091231  0.11618412  0.96561287    -0.74100
Al599      Al  0.20436521  0.09980638  0.94541134     1.49000
C600        C  0.23361095  0.11364894  0.95531697     0.93300
O601        O  0.23496297  0.02260876  0.96803043    -0.80300
O602        O  0.19793327  0.99110984  0.93061848    -0.73800
Al603      Al  0.22749667  0.04132372  0.93122998     1.90100
O604        O  0.21543751  0.99115647  0.98069377    -0.72900
O605        O  0.18033705  0.04276905  0.95408862    -0.72800
O606        O  0.19969474  0.04557244  0.00150118    -0.78400
O607        O  0.18705693  0.08800425  0.92526136    -0.76600
O608        O  0.21034113  0.05372228  0.94711172    -1.12800
O609        O  0.21281367  0.11052705  0.90706812    -0.72000
C610        C  0.21874692  0.09155560  0.88690668     0.98800
C611        C  0.22904676  0.99732446  0.98308671     0.95200
Al612      Al  0.19922906  0.02034518  0.96513666     1.55600
O613        O  0.23733922  0.08679304  0.93950122    -0.76600
C614        C  0.17703460  0.06860348  0.93616469     0.99300
C615        C  0.20895900  0.97797848  0.91761804     0.94200
O616        O  0.22125308  0.99377272  0.91912278    -0.81900
O617        O  0.27458057  0.24623939  0.66736856    -0.81400
C618        C  0.29895314  0.33036181  0.75388750     0.98000
O619        O  0.29599250  0.29728325  0.74891044    -0.70500
O620        O  0.28140817  0.24180903  0.72646280    -0.74100
Al621      Al  0.29688514  0.27400343  0.71171461     1.49000
C622        C  0.26783072  0.24713240  0.73049421     0.93300
O623        O  0.25745587  0.33857452  0.68990759    -0.80300
O624        O  0.28139282  0.36396620  0.65618474    -0.73800
Al625      Al  0.26777400  0.29346534  0.68072892     1.90100
O626        O  0.27394965  0.36772608  0.71567715    -0.72900
O627        O  0.30784730  0.34376323  0.67309380    -0.72800
O628        O  0.30027110  0.35301328  0.73259141    -0.78400
O629        O  0.31525000  0.29925051  0.70165178    -0.76600
O630        O  0.28510205  0.30696087  0.69518344    -1.12800
O631        O  0.29835095  0.24734521  0.67582734    -0.72000
C632        C  0.28728218  0.23300850  0.66368687     0.98800
C633        C  0.26144845  0.36640084  0.70438047     0.95200
Al634      Al  0.29049761  0.35337038  0.69425784     1.55600
O635        O  0.26164963  0.27391242  0.71791365    -0.76600
C636        C  0.31822854  0.32615751  0.68467946     0.99300
C637        C  0.27444929  0.34534715  0.63714276     0.94200
O638        O  0.27168256  0.31193252  0.64195199    -0.81900
O639        O  0.46840687  0.48542464  0.68541918    -0.81400
C640        C  0.43503083  0.42050676  0.77061963     0.98000
O641        O  0.44063566  0.45134582  0.76536699    -0.70500
O642        O  0.45995356  0.49788896  0.74386666    -0.74100
Al643      Al  0.44293728  0.47279421  0.72769863     1.49000
C644        C  0.47286192  0.48755435  0.74986968     0.93300
O645        O  0.47675415  0.38964292  0.71676700    -0.80300
O646        O  0.45334842  0.37204840  0.67829069    -0.73800
Al647      Al  0.47089978  0.43750870  0.70241881     1.90100
O648        O  0.45685221  0.37043222  0.73915079    -0.72900
O649        O  0.42838161  0.40853085  0.68806224    -0.72800
O650        O  0.43183512  0.39925587  0.74935498    -0.78400
O651        O  0.42352017  0.45692484  0.71490679    -0.76600
O652        O  0.45241687  0.43385556  0.71427967    -1.12800
O653        O  0.44492743  0.49714340  0.69130713    -0.72000
C654        C  0.45719782  0.50485970  0.68015744     0.98800
C655        C  0.46998358  0.36605394  0.73224792     0.95200
Al656      Al  0.44329043  0.39110436  0.71354918     1.55600
O657        O  0.47747281  0.45775103  0.73924859    -0.76600
C658        C  0.41943287  0.43243888  0.69673251     0.99300
C659        C  0.46208010  0.38607521  0.65947231     0.94200
O660        O  0.46694333  0.41797985  0.66402753    -0.81900
O661        O  0.27363156  0.47646338  0.05156491    -0.81400
C662        C  0.30688856  0.40976996  0.96717404     0.98000
O663        O  0.30260176  0.44160462  0.97346046    -0.70500
O664        O  0.28470111  0.49110746  0.99416564    -0.74100
Al665      Al  0.29987860  0.46093289  0.01162619     1.49000
C666        C  0.27206514  0.48347289  0.98473708     0.93300
O667        O  0.26254779  0.38625567  0.01325142    -0.80300
O668        O  0.28479071  0.36099152  0.05540977    -0.73800
Al669      Al  0.26983805  0.43082173  0.03128505     1.90100
O670        O  0.28250587  0.36148679  0.99539669    -0.72900
O671        O  0.31089076  0.39113016  0.04962787    -0.72800
O672        O  0.30852121  0.38619142  0.98767727    -0.78400
O673        O  0.31806644  0.44013635  0.02610318    -0.76600
O674        O  0.28852209  0.42342393  0.02199093    -1.12800
O675        O  0.29757594  0.48310015  0.04883927    -0.72000
C676        C  0.28538830  0.49203154  0.05975096     0.98800
C677        C  0.26886079  0.36218405  0.99766429     0.95200
Al678      Al  0.29608146  0.37873852  0.02223595     1.55600
O679        O  0.26569000  0.45518864  0.99454506    -0.76600
C680        C  0.32087767  0.41359392  0.04334826     0.99300
C681        C  0.27567398  0.37466805  0.07325519     0.94200
O682        O  0.27127863  0.40707847  0.06898628    -0.81900
O683        O  0.46581659  0.27306210  0.07983806    -0.81400
C684        C  0.43737819  0.33588258  0.98031718     0.98000
O685        O  0.43519910  0.30434403  0.99081877    -0.70500
O686        O  0.45689212  0.25856446  0.99670474    -0.74100
Al687      Al  0.44292664  0.27844898  0.02393605     1.49000
C688        C  0.47002593  0.25011406  0.00172682     0.93300
O689        O  0.48204747  0.33387502  0.02030895    -0.80300
O690        O  0.45298305  0.36976997  0.07661510    -0.73800
Al691      Al  0.47285895  0.30398167  0.04941741     1.90100
O692        O  0.46694687  0.38054491  0.02381082    -0.72900
O693        O  0.42937250  0.35189735  0.04725052    -0.72800
O694        O  0.44394043  0.36000695  0.99503206    -0.78400
O695        O  0.42691008  0.29235218  0.04864600    -0.76600
O696        O  0.45477286  0.31456515  0.03639112    -1.12800
O697        O  0.44843674  0.24541314  0.05458356    -0.72000
C698        C  0.45672638  0.24738222  0.07692107     0.98800
C699        C  0.47898129  0.36708501  0.01589829     0.95200
Al700      Al  0.44879339  0.36125550  0.03571797     1.55600
O701        O  0.47632222  0.26356247  0.02390080    -0.76600
C702        C  0.42198177  0.32396783  0.05355934     0.99300
C703        C  0.46525257  0.36489842  0.08870973     0.94200
O704        O  0.47413521  0.34205182  0.07823068    -0.81900
C705        C  0.36237431  0.40306398  0.04606562    -0.11400
C706        C  0.36362573  0.37444789  0.06672625     0.11200
C707        C  0.35143340  0.36445896  0.08418572    -0.03200
C708        C  0.33774465  0.37992040  0.07720454    -0.06000
C709        C  0.33605973  0.40591109  0.05409088    -0.16700
C710        C  0.34883970  0.41968721  0.03971989     0.02200
C711        C  0.37780626  0.35478197  0.06828451     0.12100
C712        C  0.35294056  0.33747091  0.10979556     0.62700
H713        H  0.32813700  0.37074273  0.08918362     0.12200
C714        C  0.34842972  0.45092513  0.01727195     0.54900
H715        H  0.37210670  0.41122878  0.03399586     0.07900
C716        C  0.38122776  0.32640264  0.04804324    -0.05900
C717        C  0.39569349  0.31347907  0.04670047    -0.06600
C718        C  0.40679873  0.32933423  0.06379892    -0.16200
C719        C  0.40315287  0.35562141  0.08566558    -0.01800
C720        C  0.38860982  0.36793691  0.08756221    -0.09300
C721        C  0.37008319  0.31256606  0.02571416     0.65000
H722        H  0.39873072  0.29369203  0.02992336     0.10400
C723        C  0.41466028  0.37223609  0.10579239     0.63300
H724        H  0.38579027  0.38973112  0.10278460     0.07800
F725        F  0.34084933  0.44039990  0.99216338    -0.19700
F726        F  0.36232192  0.46146860  0.00842915    -0.15900
F727        F  0.34177486  0.48112250  0.02985689    -0.19400
F728        F  0.36296265  0.35075153  0.13006958    -0.22800
F729        F  0.35773295  0.30395578  0.09952084    -0.24300
F730        F  0.33980058  0.33211915  0.12448212    -0.18300
F731        F  0.42229902  0.39906590  0.09052767    -0.20700
F732        F  0.42428936  0.34549609  0.11547395    -0.21900
F733        F  0.40836668  0.38800313  0.13061905    -0.19100
F734        F  0.37503722  0.28172414  0.01104192    -0.19200
F735        F  0.36736857  0.33959161  0.00479736    -0.23000
F736        F  0.35714028  0.30345680  0.03977300    -0.24600
C737        C  0.44201482  0.39852465  0.85191258    -0.11400
C738        C  0.42985444  0.37692929  0.85878702     0.11200
C739        C  0.41854835  0.37246775  0.83769047    -0.03200
C740        C  0.42045790  0.38766428  0.80907206    -0.06000
C741        C  0.43294669  0.40833360  0.80178242    -0.16700
C742        C  0.44382334  0.41452430  0.82381076     0.02200
C743        C  0.42933822  0.36129293  0.88913752     0.12100
C744        C  0.40460286  0.35201600  0.84549708     0.62700
H745        H  0.41220052  0.38358440  0.79214845     0.12200
C746        C  0.45750129  0.43711050  0.81786559     0.54900
H747        H  0.45019702  0.40252057  0.86901734     0.07900
C748        C  0.43782870  0.33031226  0.89713817    -0.05900
C749        C  0.43940432  0.32170761  0.92739690    -0.06600
C750        C  0.43315871  0.34363806  0.94945880    -0.16200
C751        C  0.42401373  0.37331711  0.94150213    -0.01800
C752        C  0.42234192  0.38185026  0.91121232    -0.09300
C753        C  0.44571602  0.30741018  0.87400590     0.65000
H754        H  0.44625923  0.29895530  0.93419225     0.10400
C755        C  0.41592640  0.39540291  0.96480026     0.63300
H756        H  0.41609736  0.40570983  0.90453327     0.07800
F757        F  0.46716289  0.43619824  0.84154896    -0.19700
F758        F  0.45364160  0.47325207  0.81311504    -0.15900
F759        F  0.46476100  0.42371124  0.79326877    -0.19400
F760        F  0.39778573  0.36874228  0.86925454    -0.22800
F761        F  0.40780921  0.31621358  0.85312963    -0.24300
F762        F  0.39486088  0.35160233  0.82196004    -0.18300
F763        F  0.42574491  0.41412596  0.98243540    -0.20700
F764        F  0.40766352  0.37209774  0.98241905    -0.21900
F765        F  0.40658874  0.42081072  0.95199458    -0.19100
F766        F  0.45265564  0.27744133  0.88667082    -0.19200
F767        F  0.45619056  0.32832855  0.85968105    -0.23000
F768        F  0.43584439  0.29457999  0.85329757    -0.24600
C769        C  0.29312350  0.34575381  0.83646587    -0.11400
C770        C  0.30546781  0.36656718  0.84366155     0.11200
C771        C  0.31581106  0.37549543  0.82133003    -0.03200
C772        C  0.31334806  0.36311219  0.79214258    -0.06000
C773        C  0.30088930  0.34255349  0.78491087    -0.16700
C774        C  0.29037327  0.33452325  0.80722156     0.02200
C775        C  0.30679535  0.37976416  0.87467975     0.12100
C776        C  0.32922147  0.39841455  0.82828423     0.62700
H777        H  0.32115660  0.36928944  0.77470492     0.12200
C778        C  0.27595320  0.31590566  0.80002915     0.54900
H779        H  0.28542832  0.33914478  0.85400546     0.07900
C780        C  0.29807663  0.40885914  0.88523630    -0.05900
C781        C  0.29901128  0.41819766  0.91533261    -0.06600
C782        C  0.30835836  0.39977278  0.93526806    -0.16200
C783        C  0.31750753  0.37142269  0.92436934    -0.01800
C784        C  0.31633316  0.36151799  0.89418923    -0.09300
C785        C  0.28748517  0.42939164  0.86507506     0.65000
H786        H  0.29167767  0.43880653  0.92386174     0.10400
C787        C  0.32866522  0.35218709  0.94394071     0.63300
H788        H  0.32272568  0.33899214  0.88557884     0.07800
F789        F  0.26647798  0.31586085  0.82404762    -0.19700
F790        F  0.27841619  0.28000570  0.79215513    -0.15900
F791        F  0.26915731  0.33409588  0.77681287    -0.19400
F792        F  0.33781141  0.38059985  0.84906634    -0.22800
F793        F  0.32498485  0.43195348  0.83950637    -0.24300
F794        F  0.33768037  0.40468207  0.80324242    -0.18300
F795        F  0.33776681  0.32967453  0.92757225    -0.20700
F796        F  0.32171447  0.33070742  0.96501847    -0.21900
F797        F  0.33731098  0.37791164  0.95794543    -0.19100
F798        F  0.28144098  0.45949997  0.87907031    -0.19200
F799        F  0.27617813  0.40652010  0.85675548    -0.23000
F800        F  0.29466180  0.44176306  0.83990283    -0.24600
C801        C  0.35986704  0.34182652  0.69066598    -0.11400
C802        C  0.36098038  0.37798990  0.68023688     0.11200
C803        C  0.34851762  0.39517311  0.66796189    -0.03200
C804        C  0.33508001  0.37622139  0.66838659    -0.06000
C805        C  0.33356009  0.34075694  0.68089607    -0.16700
C806        C  0.34638763  0.32288055  0.69158655     0.02200
C807        C  0.37527599  0.39740114  0.68356392     0.12100
C808        C  0.34937071  0.43364189  0.65494008     0.62700
H809        H  0.32548130  0.38990565  0.65975492     0.12200
C810        C  0.34607064  0.28434045  0.70436966     0.54900
H811        H  0.36968132  0.32902518  0.69925888     0.07900
C812        C  0.37981603  0.41213598  0.71116864    -0.05900
C813        C  0.39390015  0.42756125  0.71344199    -0.06600
C814        C  0.40370580  0.42769465  0.68938981    -0.16200
C815        C  0.39876512  0.41526098  0.66127789    -0.01800
C816        C  0.38470550  0.39972044  0.65902000    -0.09300
C817        C  0.37018037  0.40957581  0.73862142     0.65000
H818        H  0.39781852  0.43670937  0.73487820     0.10400
C819        C  0.40781226  0.41757175  0.63308725     0.63300
H820        H  0.38113381  0.38868254  0.63790782     0.07800
F821        F  0.33856529  0.28409952  0.73105774    -0.19700
F822        F  0.36000165  0.27105648  0.70979214    -0.15900
F823        F  0.33937072  0.26092625  0.68450368    -0.19400
F824        F  0.35871201  0.43392854  0.63078223    -0.22800
F825        F  0.35454024  0.45779569  0.67604719    -0.24300
F826        F  0.33585304  0.44608483  0.64542245    -0.18300
F827        F  0.39968622  0.43429929  0.61092163    -0.20700
F828        F  0.41140406  0.38262247  0.62403747    -0.21900
F829        F  0.42049024  0.43765577  0.63658660    -0.19100
F830        F  0.37611100  0.42836512  0.76240058    -0.19200
F831        F  0.36859489  0.37330914  0.74698724    -0.23000
F832        F  0.35655431  0.42426757  0.73273341    -0.24600
C833        C  0.26401991  0.27486953  0.95714154    -0.11400
C834        C  0.25355803  0.25761530  0.97498452     0.11200
C835        C  0.24578174  0.27781366  0.99660876    -0.03200
C836        C  0.24991165  0.31436910  0.00174864    -0.06000
C837        C  0.26090569  0.33114918  0.98464468    -0.16700
C838        C  0.26703307  0.31209636  0.96026777     0.02200
C839        C  0.24985713  0.21951310  0.96785681     0.12100
C840        C  0.23324112  0.26069991  0.01389432     0.62700
H841        H  0.24522019  0.32922185  0.02021925     0.12200
C842        C  0.27704633  0.33004847  0.93765982     0.54900
H843        H  0.26932854  0.25944637  0.93964491     0.07900
C844        C  0.24140651  0.21084028  0.94251850    -0.05900
C845        C  0.23834469  0.17410929  0.93701880    -0.06600
C846        C  0.24262526  0.14639867  0.95675274    -0.16200
C847        C  0.25187642  0.15445689  0.98089341    -0.01800
C848        C  0.25550393  0.19131538  0.98594820    -0.09300
C849        C  0.23475840  0.23867799  0.92116441     0.65000
H850        H  0.23131456  0.16729436  0.91842340     0.10400
C851        C  0.25808861  0.12545683  0.00156259     0.63300
H852        H  0.26248591  0.19825734  0.00456988     0.07800
F853        F  0.27537259  0.36769954  0.93741118    -0.19700
F854        F  0.27377263  0.31758214  0.90943894    -0.15900
F855        F  0.29139176  0.32127723  0.94415272    -0.19400
F856        F  0.23827782  0.23161656  0.03080729    -0.22800
F857        F  0.22273157  0.24818851  0.99429801    -0.24300
F858        F  0.22667888  0.28561565  0.03275440    -0.18300
F859        F  0.27318668  0.12765154  0.00119481    -0.20700
F860        F  0.25420289  0.09027973  0.99345962    -0.21900
F861        F  0.25322085  0.13157606  0.03019101    -0.19100
F862        F  0.21989179  0.23228685  0.91882025    -0.19200
F863        F  0.24109204  0.23440966  0.89350259    -0.23000
F864        F  0.23652921  0.27466115  0.92973173    -0.24600
C865        C  0.23623672  0.11353962  0.81092864    -0.11400
C866        C  0.23486188  0.15177669  0.81037622     0.11200
C867        C  0.22599224  0.16905763  0.83186272    -0.03200
C868        C  0.22019619  0.14784850  0.85532234    -0.06000
C869        C  0.22279721  0.10981356  0.85791879    -0.16700
C870        C  0.23027048  0.09199306  0.83417609     0.02200
C871        C  0.24376332  0.17352456  0.78869226     0.12100
C872        C  0.22288695  0.20992580  0.83018041     0.62700
H873        H  0.21396277  0.16142743  0.87247310     0.12200
C874        C  0.23233262  0.05073035  0.83321639     0.54900
H875        H  0.24266919  0.10085551  0.79359364     0.07900
C876        C  0.25862555  0.18201221  0.79429691    -0.05900
C877        C  0.26613053  0.20542814  0.77445373    -0.06600
C878        C  0.25918281  0.22144677  0.74971834    -0.16200
C879        C  0.24441851  0.21156780  0.74348006    -0.01800
C880        C  0.23703293  0.18754983  0.76309485    -0.09300
C881        C  0.26646632  0.16653155  0.82135247     0.65000
H882        H  0.27751220  0.21186448  0.77844810     0.10400
C883        C  0.23648499  0.22537172  0.71594319     0.63300
H884        H  0.22575011  0.18012095  0.75900732     0.07800
F885        F  0.24207405  0.03986533  0.85503446    -0.19700
F886        F  0.23784054  0.03937468  0.80611544    -0.15900
F887        F  0.21903109  0.03337387  0.83742586    -0.19400
F888        F  0.21515857  0.21767091  0.80450718    -0.22800
F889        F  0.23584045  0.22948784  0.82988142    -0.24300
F890        F  0.21464877  0.22180204  0.85406292    -0.18300
F891        F  0.24483196  0.21858836  0.69092280    -0.20700
F892        F  0.23388322  0.26254953  0.71832035    -0.21900
F893        F  0.22313249  0.20815775  0.71213407    -0.19100
F894        F  0.28052405  0.18020183  0.82394178    -0.19200
F895        F  0.26736421  0.12885137  0.81910670    -0.23000
F896        F  0.25891589  0.17539494  0.84696914    -0.24600
C897        C  0.10822317  0.12022952  0.90803190    -0.11400
C898        C  0.11884999  0.13220908  0.92812124     0.11200
C899        C  0.11597013  0.16388934  0.94523006    -0.03200
C900        C  0.10156488  0.17803851  0.94591142    -0.06000
C901        C  0.09038355  0.16372264  0.92779290    -0.16700
C902        C  0.09431907  0.13676245  0.90631915     0.02200
C903        C  0.13319041  0.11244830  0.92911650     0.12100
C904        C  0.12821404  0.18352897  0.96144877     0.62700
H905        H  0.09891624  0.19995754  0.96109161     0.12200
C906        C  0.08414472  0.12471010  0.88154207     0.54900
H907        H  0.11089519  0.09758219  0.89353218     0.07900
C908        C  0.13647552  0.08540921  0.95087094    -0.05900
C909        C  0.15068381  0.07004535  0.95159056    -0.06600
C910        C  0.16143136  0.07954373  0.93043294    -0.16200
C911        C  0.15734054  0.10318741  0.90644771    -0.01800
C912        C  0.14342056  0.11978056  0.90672519    -0.09300
C913        C  0.12488900  0.07222441  0.97268171     0.65000
H914        H  0.15360525  0.05127674  0.96932340     0.10400
C915        C  0.16748778  0.11168423  0.88053684     0.63300
H916        H  0.14047450  0.13931816  0.88953612     0.07800
F917        F  0.07485717  0.09754852  0.89180957    -0.19700
F918        F  0.09198675  0.11096218  0.85773863    -0.15900
F919        F  0.07607812  0.15408797  0.87098837    -0.19400
F920        F  0.13867723  0.19453836  0.94106442    -0.22800
F921        F  0.13469816  0.16070913  0.98215069    -0.24300
F922        F  0.12319991  0.21434725  0.97605219    -0.18300
F923        F  0.15982372  0.12507426  0.85626917    -0.20700
F924        F  0.17464947  0.08025872  0.87151618    -0.21900
F925        F  0.17759570  0.13790211  0.88881557    -0.19100
F926        F  0.13021408  0.04531494  0.99157628    -0.19200
F927        F  0.11321518  0.05774640  0.95714164    -0.23000
F928        F  0.11992801  0.10084926  0.98989277    -0.24600
C929        C  0.25080241  0.28927293  0.19408750    -0.11400
C930        C  0.24565378  0.28888000  0.16471933     0.11200
C931        C  0.23332084  0.26715371  0.15747725    -0.03200
C932        C  0.22622791  0.24745960  0.18036128    -0.06000
C933        C  0.23132500  0.24801949  0.20978600    -0.16700
C934        C  0.24380017  0.26929474  0.21689870     0.02200
C935        C  0.25352967  0.31144282  0.14207809     0.12100
C936        C  0.22789993  0.26408981  0.12565644     0.62700
H937        H  0.21680396  0.23067188  0.17533989     0.12200
C938        C  0.24945184  0.27173481  0.24854730     0.54900
H939        H  0.26037708  0.30563280  0.19899116     0.07900
C940        C  0.25081216  0.34930391  0.13842217    -0.05900
C941        C  0.25871946  0.36893296  0.11662613    -0.06600
C942        C  0.26917998  0.35204078  0.09810179    -0.16200
C943        C  0.27200073  0.31380083  0.10235905    -0.01800
C944        C  0.26419342  0.29454345  0.12457715    -0.09300
C945        C  0.23946264  0.36874322  0.15735195     0.65000
H946        H  0.25650567  0.39782133  0.11360103     0.10400
C947        C  0.28289566  0.29259637  0.08354060     0.63300
H948        H  0.26615674  0.26562984  0.12828126     0.07800
F949        F  0.23820578  0.28156763  0.26746424    -0.19700
F950        F  0.26044427  0.29760099  0.25120788    -0.15900
F951        F  0.25503938  0.23820818  0.25731680    -0.19400
F952        F  0.23843187  0.24723035  0.10846192    -0.22800
F953        F  0.22505192  0.29842807  0.11397212    -0.24300
F954        F  0.21517682  0.24363624  0.12386020    -0.18300
F955        F  0.28407818  0.25637497  0.09250554    -0.20700
F956        F  0.29662700  0.30822845  0.08592229    -0.21900
F957        F  0.27843885  0.29265201  0.05415035    -0.19100
F958        F  0.23818292  0.40539792  0.14979056    -0.19200
F959        F  0.24335280  0.36660435  0.18698756    -0.23000
F960        F  0.22592309  0.35254965  0.15367789    -0.24600
C961        C  0.19864127  0.10808637  0.08486345    -0.11400
C962        C  0.18404676  0.10474144  0.09404238     0.11200
C963        C  0.17300517  0.09654176  0.07305909    -0.03200
C964        C  0.17724610  0.08849846  0.04376461    -0.06000
C965        C  0.19193115  0.09040022  0.03504539    -0.16700
C966        C  0.20275629  0.10177341  0.05534129     0.02200
C967        C  0.18091672  0.11311532  0.12547801     0.12100
C968        C  0.15692379  0.09671472  0.08141745     0.62700
H969        H  0.16916530  0.08046440  0.02743573     0.12200
C970        C  0.21840181  0.10852203  0.04550188     0.54900
H971        H  0.20676135  0.11621161  0.10108320     0.07900
C972        C  0.18333847  0.08716000  0.14837967    -0.05900
C973        C  0.18364543  0.09942029  0.17798351    -0.06600
C974        C  0.18262685  0.13688324  0.18482879    -0.16200
C975        C  0.17870507  0.16210989  0.16197993    -0.01800
C976        C  0.17802505  0.14962559  0.13257480    -0.09300
C977        C  0.18694871  0.04747992  0.14137497     0.65000
H978        H  0.18605372  0.08018237  0.19568710     0.10400
C979        C  0.17567071  0.20230112  0.16791534     0.63300
H980        H  0.17625071  0.16892820  0.11456405     0.07800
F981        F  0.22719501  0.11943870  0.06888373    -0.19700
F982        F  0.21857798  0.13600191  0.02424972    -0.15900
F983        F  0.22428235  0.07698159  0.03357792    -0.19400
F984        F  0.15308880  0.13075533  0.09220338    -0.22800
F985        F  0.15419228  0.07060605  0.10303457    -0.24300
F986        F  0.14807510  0.08929617  0.05720917    -0.18300
F987        F  0.16822381  0.21849779  0.14449944    -0.20700
F988        F  0.18869059  0.22094115  0.17162820    -0.21900
F989        F  0.16711993  0.20595388  0.19309926    -0.19100
F990        F  0.18715589  0.02589152  0.16676439    -0.19200
F991        F  0.20055913  0.04558215  0.12807804    -0.23000
F992        F  0.17668180  0.03298101  0.12225974    -0.24600
C993        C  0.07724940  0.13889827  0.08566458    -0.11400
C994        C  0.07021443  0.10608278  0.09370061     0.11200
C995        C  0.06317746  0.08486880  0.07165410    -0.03200
C996        C  0.06226656  0.09902673  0.04279726    -0.06000
C997        C  0.06775027  0.13372210  0.03561543    -0.16700
C998        C  0.07608408  0.15330260  0.05669423     0.02200
C999        C  0.06665912  0.10086679  0.12538260     0.12100
C1000       C  0.05544803  0.04868717  0.07751802     0.62700
H1001       H  0.05601425  0.08420463  0.02640346     0.12200
C1002       C  0.08340606  0.18938663  0.04879326     0.54900
H1003       H  0.08252291  0.15475686  0.10289056     0.07900
C1004       C  0.07536599  0.08013753  0.14517259    -0.05900
C1005       C  0.07021158  0.07446260  0.17434237    -0.06600
C1006       C  0.05688470  0.08952371  0.18387937    -0.16200
C1007       C  0.04845262  0.11110522  0.16412649    -0.01800
C1008       C  0.05353718  0.11642326  0.13509373    -0.09300
C1009       C  0.08972846  0.06356536  0.13514614     0.65000
H1010       H  0.07646609  0.05798793  0.18987620     0.10400
C1011       C  0.03392134  0.12734858  0.17330059     0.63300
H1012       H  0.04715671  0.13231386  0.11935788     0.07800
F1013       F  0.09272782  0.20092351  0.07110110    -0.19700
F1014       F  0.07299774  0.21630175  0.04442064    -0.15900
F1015       F  0.09153431  0.18534391  0.02307232    -0.19400
F1016       F  0.04071401  0.05260715  0.07135251    -0.22800
F1017       F  0.05684707  0.03627102  0.10642262    -0.24300
F1018       F  0.06120040  0.02227700  0.05894308    -0.18300
F1019       F  0.03613497  0.15254322  0.19566012    -0.20700
F1020       F  0.02477913  0.09973702  0.18330534    -0.21900
F1021       F  0.02701574  0.14513502  0.14993996    -0.19100
F1022       F  0.09676559  0.04545512  0.15815447    -0.19200
F1023       F  0.09889713  0.09089654  0.12472812    -0.23000
F1024       F  0.08723163  0.03875028  0.11260053    -0.24600
C1025       C  0.13749306  0.12175734  0.32040440    -0.11400
C1026       C  0.12861047  0.12169431  0.29496625     0.11200
C1027       C  0.13387961  0.13715912  0.26809187    -0.03200
C1028       C  0.14822779  0.15069438  0.26728652    -0.06000
C1029       C  0.15740322  0.14939448  0.29228942    -0.16700
C1030       C  0.15193960  0.13526646  0.31953453     0.02200
C1031       C  0.11338730  0.10799921  0.29747052     0.12100
C1032       C  0.12438925  0.13960641  0.24036836     0.62700
H1033       H  0.15259263  0.16134000  0.24658486     0.12200
C1034       C  0.16114158  0.13511051  0.34760219     0.54900
H1035       H  0.13303933  0.11071754  0.34088695     0.07900
C1036       C  0.10943020  0.07169847  0.29038363    -0.05900
C1037       C  0.09445974  0.06302204  0.28787657    -0.06600
C1038       C  0.08342809  0.08885623  0.29421389    -0.16200
C1039       C  0.08769802  0.12372440  0.30573528    -0.01800
C1040       C  0.10263990  0.13279560  0.30626732    -0.09300
C1041       C  0.12098541  0.04223290  0.28650658     0.65000
H1042       H  0.09131023  0.03592395  0.28061930     0.10400
C1043       C  0.07686053  0.15184541  0.31732325     0.63300
H1044       H  0.10611782  0.15995646  0.31280425     0.07800
F1045       F  0.17209107  0.10919125  0.34540220    -0.19700
F1046       F  0.15284611  0.12684397  0.37250261    -0.15900
F1047       F  0.16733113  0.16930164  0.35173147    -0.19400
F1048       F  0.11211080  0.16039980  0.24619555    -0.22800
F1049       F  0.12006677  0.10506877  0.23158831    -0.24300
F1050       F  0.13175183  0.15574004  0.21677912    -0.18300
F1051       F  0.08379971  0.18098481  0.33096824    -0.20700
F1052       F  0.06781899  0.13570286  0.33830994    -0.21900
F1053       F  0.06864729  0.16591532  0.29413702    -0.19100
F1054       F  0.11482024  0.00847576  0.28035398    -0.19200
F1055       F  0.12894850  0.03894877  0.31250343    -0.23000
F1056       F  0.13041005  0.05116250  0.26358344    -0.24600
C1057       C  0.01338901  0.18379378  0.38156418    -0.11400
C1058       C  0.00723516  0.16355597  0.40493659     0.11200
C1059       C  0.00805227  0.12482137  0.40425648    -0.03200
C1060       C  0.01494318  0.10771959  0.37987852    -0.06000
C1061       C  0.02079513  0.12779740  0.35577219    -0.16700
C1062       C  0.02024385  0.16700821  0.35703517     0.02200
C1063       C  0.99911635  0.18409618  0.42851898     0.12100
C1064       C  0.00142568  0.10153538  0.42890281     0.62700
H1065       H  0.01531465  0.07812419  0.37904378     0.12200
C1066       C  0.02629031  0.19178189  0.33256139     0.54900
H1067       H  0.01234754  0.21330719  0.38239775     0.07900
C1068       C  0.00631111  0.20464709  0.45076077    -0.05900
C1069       C  0.99787695  0.22628257  0.47025887    -0.06600
C1070       C  0.98246216  0.22718200  0.46906699    -0.16200
C1071       C  0.97527752  0.20471323  0.44769062    -0.01800
C1072       C  0.98380950  0.18480835  0.42718418    -0.09300
C1073       C  0.02283810  0.20349422  0.45402420     0.65000
H1074       H  0.00336672  0.24260886  0.48688846     0.10400
C1075       C  0.95874309  0.20118754  0.44619226     0.63300
H1076       H  0.97856521  0.16928911  0.40973218     0.07800
F1077       F  0.02491754  0.22855472  0.33943467    -0.19700
F1078       F  0.01879980  0.18608437  0.30629690    -0.15900
F1079       F  0.04100853  0.18482015  0.32848201    -0.19400
F1080       F  0.98643677  0.10612564  0.42950759    -0.22800
F1081       F  0.00717706  0.11171001  0.45603112    -0.24300
F1082       F  0.00423930  0.06462522  0.42493842    -0.18300
F1083       F  0.95249671  0.23517999  0.44196263    -0.20700
F1084       F  0.95356870  0.18574181  0.47229569    -0.21900
F1085       F  0.95426765  0.17905058  0.42301708    -0.19100
F1086       F  0.02753435  0.22256126  0.47876879    -0.19200
F1087       F  0.02940942  0.21887728  0.42927606    -0.23000
F1088       F  0.02744545  0.16760760  0.45702052    -0.24600
C1089       C  0.85927023  0.38478177  0.58714673    -0.11400
C1090       C  0.86873579  0.38627674  0.56265714     0.11200
C1091       C  0.86406982  0.40324537  0.53589725    -0.03200
C1092       C  0.84998129  0.41867035  0.53469413    -0.06000
C1093       C  0.84016505  0.41511154  0.55849828    -0.16700
C1094       C  0.84486914  0.39822968  0.58527127     0.02200
C1095       C  0.88317193  0.36783470  0.56470785     0.12100
C1096       C  0.87349499  0.40242932  0.50803801     0.62700
H1097       H  0.84600406  0.43040844  0.51405772     0.12200
C1098       C  0.83441371  0.39212819  0.61094684     0.54900
H1099       H  0.86297328  0.37103030  0.60716620     0.07900
C1100       C  0.89571604  0.38629997  0.57498456    -0.05900
C1101       C  0.90939746  0.36941441  0.57155651    -0.06600
C1102       C  0.91101627  0.33529870  0.55725417    -0.16200
C1103       C  0.89817151  0.31542062  0.54942333    -0.01800
C1104       C  0.88443380  0.33207343  0.55382003    -0.09300
C1105       C  0.89469113  0.42435656  0.58834028     0.65000
H1106       H  0.91906051  0.38422119  0.57843020     0.10400
C1107       C  0.89868695  0.27772752  0.53530121     0.63300
H1108       H  0.87453270  0.31829763  0.54681734     0.07800
F1109       F  0.82653055  0.42373259  0.61636665    -0.19700
F1110       F  0.84173365  0.38261502  0.63678122    -0.15900
F1111       F  0.82491344  0.36403516  0.60393824    -0.19400
F1112       F  0.87512010  0.36664319  0.49869178    -0.22800
F1113       F  0.88714409  0.41705014  0.51370597    -0.24300
F1114       F  0.86729532  0.42227461  0.48498550    -0.18300
F1115       F  0.88497006  0.26170524  0.53407304    -0.20700
F1116       F  0.90762164  0.25474659  0.55174977    -0.21900
F1117       F  0.90390053  0.28058585  0.50651691    -0.19100
F1118       F  0.90820809  0.43727804  0.59736650    -0.19200
F1119       F  0.88558312  0.42355726  0.61285429    -0.23000
F1120       F  0.88911767  0.44870704  0.56763103    -0.24600
C1121       C  0.94612440  0.40023801  0.34457186    -0.11400
C1122       C  0.93347233  0.38036993  0.35148434     0.11200
C1123       C  0.92245688  0.37576360  0.32974951    -0.03200
C1124       C  0.92493398  0.38990796  0.30094280    -0.06000
C1125       C  0.93789370  0.40872239  0.29368733    -0.16700
C1126       C  0.94873060  0.41395989  0.31587053     0.02200
C1127       C  0.93266562  0.36414362  0.38172569     0.12100
C1128       C  0.90822895  0.35615820  0.33698515     0.62700
H1129       H  0.91683202  0.38601866  0.28368868     0.12200
C1130       C  0.96334380  0.43212761  0.30918355     0.54900
H1131       H  0.95423438  0.40379100  0.36187445     0.07900
C1132       C  0.94029289  0.33160195  0.38881401    -0.05900
C1133       C  0.94156422  0.32130175  0.41877701    -0.06600
C1134       C  0.93600599  0.34287730  0.44203156    -0.16200
C1135       C  0.92806871  0.37529813  0.43474393    -0.01800
C1136       C  0.92644651  0.38504185  0.40451992    -0.09300
C1137       C  0.94788089  0.30894235  0.36502592     0.65000
H1138       H  0.94788068  0.29728511  0.42425497     0.10400
C1139       C  0.92176372  0.40046284  0.45831171     0.63300
H1140       H  0.92102354  0.41034931  0.39841809     0.07800
F1141       F  0.97291951  0.42946074  0.33293978    -0.19700
F1142       F  0.96123378  0.46886239  0.30302119    -0.15900
F1143       F  0.96990073  0.41544758  0.28511531    -0.19400
F1144       F  0.90109454  0.37421989  0.35967875    -0.22800
F1145       F  0.91097422  0.32056760  0.34591475    -0.24300
F1146       F  0.89896348  0.35499848  0.31266945    -0.18300
F1147       F  0.93299348  0.41745700  0.47354492    -0.20700
F1148       F  0.91319832  0.38055668  0.47795592    -0.21900
F1149       F  0.91308291  0.42764254  0.44600733    -0.19100
F1150       F  0.95381269  0.27702423  0.37659082    -0.19200
F1151       F  0.95909989  0.32898859  0.35231874    -0.23000
F1152       F  0.93807359  0.29921808  0.34311789    -0.24600
C1153       C  0.99748077  0.27664558  0.22740099    -0.11400
C1154       C  0.98574599  0.25378345  0.23595572     0.11200
C1155       C  0.97289685  0.26983522  0.24746736    -0.03200
C1156       C  0.97278038  0.30743372  0.25182064    -0.06000
C1157       C  0.98287349  0.33051803  0.23716289    -0.16700
C1158       C  0.99590060  0.31497861  0.22579705     0.02200
C1159       C  0.98814269  0.21370040  0.23680447     0.12100
C1160       C  0.95861690  0.24960411  0.25338196     0.62700
H1161       H  0.96320049  0.31888690  0.26256861     0.12200
C1162       C  0.00790573  0.33798612  0.21179441     0.54900
H1163       H  0.00762998  0.26406510  0.22040380     0.07900
C1164       C  0.99497679  0.19434486  0.21337476    -0.05900
C1165       C  0.00123460  0.16035684  0.21994986    -0.06600
C1166       C  0.99969966  0.14397739  0.24799572    -0.16200
C1167       C  0.98987949  0.15948761  0.26874206    -0.01800
C1168       C  0.98526035  0.19541089  0.26370348    -0.09300
C1169       C  0.99654001  0.20864635  0.18180693     0.65000
H1170       H  0.00785982  0.14695502  0.20314138     0.10400
C1171       C  0.98478231  0.13967511  0.29662373     0.63300
H1172       H  0.97998420  0.21007644  0.28161477     0.07800
F1173       F  0.00339562  0.35104136  0.18438605    -0.19700
F1174       F  0.02054521  0.31784635  0.20745827    -0.15900
F1175       F  0.01127929  0.36706626  0.23015275    -0.19400
F1176       F  0.95639068  0.24654711  0.28370614    -0.22800
F1177       F  0.95827517  0.21518787  0.24075806    -0.24300
F1178       F  0.94710615  0.26927939  0.24124911    -0.18300
F1179       F  0.99609274  0.13659212  0.31660775    -0.20700
F1180       F  0.97970953  0.10516624  0.28938060    -0.21900
F1181       F  0.97346222  0.15815773  0.31045278    -0.19100
F1182       F  0.99207307  0.18189234  0.16211648    -0.19200
F1183       F  0.01106335  0.21679346  0.17628368    -0.23000
F1184       F  0.98815048  0.23942402  0.17641772    -0.24600
C1185       C  0.97962532  0.29315416  0.10594180    -0.11400
C1186       C  0.98911758  0.30902362  0.08501144     0.11200
C1187       C  0.99016557  0.34775400  0.08389347    -0.03200
C1188       C  0.98305831  0.36890923  0.10597203    -0.06000
C1189       C  0.97417808  0.35304001  0.12833504    -0.16700
C1190       C  0.97188719  0.31425640  0.12719079     0.02200
C1191       C  0.99770970  0.28438222  0.06444173     0.12100
C1192       C  0.99842321  0.36663199  0.05884328     0.62700
H1193       H  0.98444438  0.39835642  0.10581892     0.12200
C1194       C  0.96141083  0.29457836  0.14810104     0.54900
H1195       H  0.97850422  0.26362470  0.10572238     0.07900
C1196       C  0.01165418  0.27008606  0.07211468    -0.05900
C1197       C  0.01954896  0.24906049  0.05101805    -0.06600
C1198       C  0.01353130  0.23930180  0.02334406    -0.16200
C1199       C  0.99900491  0.25118158  0.01679612    -0.01800
C1200       C  0.99154792  0.27410733  0.03717472    -0.09300
C1201       C  0.01793197  0.27627254  0.10289728     0.65000
H1202       H  0.03044673  0.23942933  0.05625627     0.10400
C1203       C  0.99135846  0.24034150  0.98821048     0.63300
H1204       H  0.98069962  0.28416441  0.03206622     0.07800
F1205       F  0.96645469  0.29675453  0.17699686    -0.19700
F1206       F  0.95997596  0.25784599  0.14117980    -0.15900
F1207       F  0.94766476  0.31020669  0.14604480    -0.19400
F1208       F  0.99178756  0.35851039  0.03205575    -0.22800
F1209       F  0.01275627  0.35472678  0.05806530    -0.24300
F1210       F  0.99851189  0.40433459  0.06200392    -0.18300
F1211       F  0.97763859  0.25607063  0.98576683    -0.20700
F1212       F  0.98956353  0.20275342  0.98749562    -0.21900
F1213       F  0.99952364  0.25157836  0.96398554    -0.19100
F1214       F  0.03124184  0.25882565  0.10661840    -0.19200
F1215       F  0.00838488  0.26254986  0.12403186    -0.23000
F1216       F  0.01992890  0.31328054  0.10775276    -0.24600
C1217       C  0.81969281  0.36660409  0.34101282    -0.11400
C1218       C  0.81127553  0.34716018  0.36179607     0.11200
C1219       C  0.80102991  0.32082815  0.35205226    -0.03200
C1220       C  0.80001625  0.31377319  0.32154897    -0.06000
C1221       C  0.80811062  0.33384353  0.30041094    -0.16700
C1222       C  0.81805996  0.36116575  0.31025185     0.02200
C1223       C  0.81110793  0.36068036  0.39265342     0.12100
C1224       C  0.79077628  0.30128648  0.37358408     0.62700
H1225       H  0.79224799  0.29354151  0.31388234     0.12200
C1226       C  0.82661956  0.38533698  0.28884690     0.54900
H1227       H  0.82693683  0.38775423  0.34917450     0.07900
C1228       C  0.82034553  0.34695874  0.41529262    -0.05900
C1229       C  0.81839486  0.35993682  0.44449752    -0.06600
C1230       C  0.80827826  0.38778741  0.45074305    -0.16200
C1231       C  0.79979847  0.40314946  0.42738574    -0.01800
C1232       C  0.80130181  0.38894301  0.39875979    -0.09300
C1233       C  0.83257381  0.32033314  0.40823408     0.65000
H1234       H  0.82497367  0.34913428  0.46252885     0.10400
C1235       C  0.78906299  0.43413238  0.43245824     0.63300
H1236       H  0.79474132  0.39966886  0.38064960     0.07800
F1237       F  0.83655875  0.40745177  0.30347778    -0.19700
F1238       F  0.81712781  0.40798716  0.27343716    -0.15900
F1239       F  0.83433029  0.36389636  0.26909220    -0.19400
F1240       F  0.78256680  0.32647997  0.38919195    -0.22800
F1241       F  0.79876364  0.28038004  0.39337761    -0.24300
F1242       F  0.78113464  0.27831202  0.35903385    -0.18300
F1243       F  0.78090997  0.44204957  0.40730181    -0.20700
F1244       F  0.79669374  0.46542059  0.43991981    -0.21900
F1245       F  0.77943852  0.42470293  0.45494533    -0.19100
F1246       F  0.84024879  0.31023857  0.43349069    -0.19200
F1247       F  0.84224277  0.33670071  0.38859878    -0.23000
F1248       F  0.82704340  0.28897943  0.39539485    -0.24600
C1249       C  0.85556775  0.36685279  0.16248761    -0.11400
C1250       C  0.86537113  0.36277538  0.18623387     0.11200
C1251       C  0.86104069  0.34248324  0.21171794    -0.03200
C1252       C  0.84689611  0.32719091  0.21259021    -0.06000
C1253       C  0.83679812  0.33278602  0.18949713    -0.16700
C1254       C  0.84136659  0.35184843  0.16348538     0.02200
C1255       C  0.88020586  0.37956346  0.18364224     0.12100
C1256       C  0.87112809  0.33808737  0.23833374     0.62700
H1257       H  0.84330567  0.31255192  0.23227064     0.12200
C1258       C  0.83139235  0.35687446  0.13682364     0.54900
H1259       H  0.85906507  0.38243199  0.14318851     0.07900
C1260       C  0.89184989  0.36105591  0.16966547    -0.05900
C1261       C  0.90593083  0.37661145  0.17059065    -0.06600
C1262       C  0.90879414  0.41049189  0.18448493    -0.16200
C1263       C  0.89669335  0.43065925  0.19597713    -0.01800
C1264       C  0.88262925  0.41449414  0.19552161    -0.09300
C1265       C  0.88933417  0.32504013  0.15365698     0.65000
H1266       H  0.91492978  0.36158775  0.16092639     0.10400
C1267       C  0.89837001  0.46876332  0.20896115     0.63300
H1268       H  0.87339300  0.42860291  0.20524819     0.07800
F1269       F  0.82308696  0.32571685  0.13225216    -0.19700
F1270       F  0.83939294  0.36330768  0.11117674    -0.15900
F1271       F  0.82223526  0.38641447  0.14144867    -0.19400
F1272       F  0.87439765  0.37209724  0.24994116    -0.22800
F1273       F  0.88395062  0.32108296  0.22987966    -0.24300
F1274       F  0.86478899  0.31719843  0.26066985    -0.18300
F1275       F  0.88495694  0.48509649  0.21418651    -0.20700
F1276       F  0.90594754  0.49098191  0.18927107    -0.21900
F1277       F  0.90576255  0.46686134  0.23573348    -0.19100
F1278       F  0.90220832  0.31059424  0.14260026    -0.19200
F1279       F  0.87992329  0.33071167  0.13004721    -0.23000
F1280       F  0.88324864  0.29945650  0.17275298    -0.24600
C1281       C  0.45706090  0.67412526  0.63333017    -0.11400
C1282       C  0.46425216  0.64323918  0.62210499     0.11200
C1283       C  0.47115368  0.64438271  0.59401314    -0.03200
C1284       C  0.47142894  0.67775384  0.57867477    -0.06000
C1285       C  0.46386442  0.70827050  0.58941293    -0.16700
C1286       C  0.45635240  0.70668133  0.61674354     0.02200
C1287       C  0.46257912  0.60853401  0.63810851     0.12100
C1288       C  0.47706042  0.60995759  0.57929142     0.62700
H1289       H  0.47670868  0.67967543  0.55714376     0.12200
C1290       C  0.44732080  0.73874478  0.62755398     0.54900
H1291       H  0.45137995  0.67182485  0.65439478     0.07900
C1292       C  0.47310741  0.59579802  0.65858017    -0.05900
C1293       C  0.47119788  0.56077734  0.67078720    -0.06600
C1294       C  0.45889223  0.53938942  0.66385695    -0.16200
C1295       C  0.44814245  0.55286680  0.64399337    -0.01800
C1296       C  0.45024758  0.58751572  0.63134982    -0.09300
C1297       C  0.48589047  0.61957220  0.66827473     0.65000
H1298       H  0.47902470  0.55038302  0.68679055     0.10400
C1299       C  0.43475213  0.53067112  0.63548017     0.63300
H1300       H  0.44232867  0.59855271  0.61581439     0.07800
F1301       F  0.44168958  0.73253597  0.65569119    -0.19700
F1302       F  0.43574305  0.74433556  0.60833699    -0.15900
F1303       F  0.45584983  0.77003424  0.62842946    -0.19400
F1304       F  0.46566240  0.58599577  0.57391887    -0.22800
F1305       F  0.48717269  0.59276568  0.59736601    -0.24300
F1306       F  0.48378969  0.61770039  0.55242042    -0.18300
F1307       F  0.42734957  0.54625062  0.61174306    -0.20700
F1308       F  0.42516777  0.52864287  0.65921376    -0.21900
F1309       F  0.43895975  0.49578848  0.62730189    -0.19100
F1310       F  0.49489728  0.60142899  0.68822862    -0.19200
F1311       F  0.48063937  0.65076128  0.68189455    -0.23000
F1312       F  0.49427975  0.62982230  0.64408400    -0.24600
C1313       C  0.29991603  0.06910188  0.60726710    -0.11400
C1314       C  0.28998526  0.09685017  0.59965759     0.11200
C1315       C  0.28023093  0.09182217  0.57560315    -0.03200
C1316       C  0.28048650  0.05837081  0.56033405    -0.06000
C1317       C  0.29038703  0.03054402  0.56789067    -0.16700
C1318       C  0.30030296  0.03574202  0.59172557     0.02200
C1319       C  0.28991737  0.13094447  0.61739378     0.12100
C1320       C  0.26973935  0.12185304  0.56590323     0.62700
H1321       H  0.27312349  0.05390049  0.54184461     0.12200
C1322       C  0.31088114  0.00587782  0.60131756     0.54900
H1323       H  0.30733022  0.07383576  0.62561718     0.07900
C1324       C  0.28152780  0.13398556  0.64369637    -0.05900
C1325       C  0.28090250  0.16809495  0.65794749    -0.06600
C1326       C  0.28881083  0.19840021  0.64731750    -0.16200
C1327       C  0.29772523  0.19494707  0.62181687    -0.01800
C1328       C  0.29810046  0.16100502  0.60711956    -0.09300
C1329       C  0.27350814  0.10120283  0.65685823     0.65000
H1330       H  0.27437348  0.17131448  0.67786812     0.10400
C1331       C  0.30628646  0.22733809  0.60966822     0.63300
H1332       H  0.30459411  0.15774510  0.58717494     0.07800
F1333       F  0.31831163  0.01511873  0.62701641    -0.19700
F1334       F  0.32112061  0.00006396  0.57928041    -0.15900
F1335       F  0.30331590  0.97368562  0.60669993    -0.19400
F1336       F  0.27755043  0.15241082  0.55697055    -0.22800
F1337       F  0.26065037  0.13131322  0.58916636    -0.24300
F1338       F  0.26104871  0.11094667  0.54236328    -0.18300
F1339       F  0.31342694  0.21884171  0.58346621    -0.20700
F1340       F  0.31667580  0.23819596  0.63012723    -0.21900
F1341       F  0.29686828  0.25618694  0.60403839    -0.19100
F1342       F  0.26562061  0.11051495  0.68197972    -0.19200
F1343       F  0.28350367  0.07450469  0.66479704    -0.23000
F1344       F  0.26386359  0.08681139  0.63636692    -0.24600
C1345       C  0.26211242  0.03156537  0.41158707    -0.11400
C1346       C  0.24761050  0.04061107  0.41864806     0.11200
C1347       C  0.24127241  0.02542587  0.44473735    -0.03200
C1348       C  0.24997597  0.00340382  0.46372525    -0.06000
C1349       C  0.26470687  0.99549746  0.45732528    -0.16700
C1350       C  0.27078861  0.00916790  0.43029983     0.02200
C1351       C  0.23906841  0.06363260  0.39694011     0.12100
C1352       C  0.22534178  0.03233296  0.45239569     0.62700
H1353       H  0.24534263  0.99245970  0.48406971     0.12200
C1354       C  0.28612773  0.99896062  0.42037079     0.54900
H1355       H  0.26658249  0.04221922  0.39098727     0.07900
C1356       C  0.24031060  0.10228818  0.39524361    -0.05900
C1357       C  0.23244012  0.12161642  0.37299640    -0.06600
C1358       C  0.22349910  0.10369378  0.35199160    -0.16200
C1359       C  0.22225709  0.06456288  0.35413764    -0.01800
C1360       C  0.23013929  0.04565202  0.37644489    -0.09300
C1361       C  0.25014260  0.12291560  0.41659821     0.65000
H1362       H  0.23357030  0.15106383  0.37142648     0.10400
C1363       C  0.21303424  0.04186034  0.33289082     0.63300
H1364       H  0.22966153  0.01606428  0.37782396     0.07800
F1365       F  0.28897430  0.01062141  0.39160575    -0.19700
F1366       F  0.28772860  0.96130403  0.42113551    -0.15900
F1367       F  0.29636742  0.01497466  0.43877105    -0.19400
F1368       F  0.21644345  0.01788299  0.43057686    -0.22800
F1369       F  0.22279459  0.06953883  0.45443747    -0.24300
F1370       F  0.22146235  0.01628395  0.47921248    -0.18300
F1371       F  0.21858253  0.04468531  0.30436621    -0.20700
F1372       F  0.19868361  0.05377061  0.33350843    -0.21900
F1373       F  0.21295763  0.00504043  0.34045315    -0.19100
F1374       F  0.24953147  0.16039843  0.41195937    -0.19200
F1375       F  0.26448046  0.11189919  0.41288467    -0.23000
F1376       F  0.24591914  0.11584936  0.44556823    -0.24600
C1377       C  0.39273009  0.85903492  0.57261248    -0.11400
C1378       C  0.38419574  0.85920603  0.54670609     0.11200
C1379       C  0.38977174  0.84324185  0.52041675    -0.03200
C1380       C  0.40390946  0.82800182  0.52089243    -0.06000
C1381       C  0.41268475  0.82884808  0.54651247    -0.16700
C1382       C  0.40691434  0.84387236  0.57306430     0.02200
C1383       C  0.36926597  0.87543762  0.54773795     0.12100
C1384       C  0.38095390  0.84322881  0.49176605     0.62700
H1385       H  0.40854214  0.81696508  0.50066497     0.12200
C1386       C  0.41545129  0.84274660  0.60195209     0.54900
H1387       H  0.38818532  0.87116036  0.59249354     0.07900
C1388       C  0.35714188  0.85505136  0.55802999    -0.05900
C1389       C  0.34311968  0.87040090  0.55540539    -0.06600
C1390       C  0.34069446  0.90508928  0.54225875    -0.16200
C1391       C  0.35301275  0.92622029  0.53323665    -0.01800
C1392       C  0.36713503  0.91105492  0.53662112    -0.09300
C1393       C  0.35898292  0.81677679  0.57103728     0.65000
H1394       H  0.33381313  0.85429087  0.56254370     0.10400
C1395       C  0.35143982  0.96416194  0.51965001     0.63300
H1396       H  0.37666242  0.92625203  0.52929177     0.07800
F1397       F  0.42013687  0.80738489  0.60739882    -0.19700
F1398       F  0.40699403  0.85361024  0.62586419    -0.15900
F1399       F  0.42741870  0.86573737  0.60025516    -0.19400
F1400       F  0.37869642  0.87883644  0.48224881    -0.22800
F1401       F  0.36755895  0.82656374  0.49634417    -0.24300
F1402       F  0.38805892  0.82459793  0.46927746    -0.18300
F1403       F  0.34533206  0.96158877  0.49162852    -0.20700
F1404       F  0.36481205  0.98163375  0.51680057    -0.21900
F1405       F  0.34266134  0.98563810  0.53748777    -0.19100
F1406       F  0.34569839  0.80104887  0.57855563    -0.19200
F1407       F  0.36743476  0.81838762  0.59644612    -0.23000
F1408       F  0.36574373  0.79417973  0.55066992    -0.24600
C1409       C  0.45598726  0.08382039  0.12168984    -0.11400
C1410       C  0.45661852  0.11311914  0.14161448     0.11200
C1411       C  0.45640846  0.10664960  0.17254503    -0.03200
C1412       C  0.45641113  0.07026194  0.18261364    -0.06000
C1413       C  0.45658188  0.04067510  0.16271093    -0.16700
C1414       C  0.45606071  0.04739627  0.13174108     0.02200
C1415       C  0.45720646  0.15035183  0.12907526     0.12100
C1416       C  0.45626790  0.13798524  0.19466203     0.62700
H1417       H  0.45666944  0.06462199  0.20627352     0.12200
C1418       C  0.45585493  0.01656251  0.10941861     0.54900
H1419       H  0.45583801  0.08983655  0.09808068     0.07900
C1420       C  0.47047868  0.16592501  0.11892604    -0.05900
C1421       C  0.46995589  0.19993547  0.10436938    -0.06600
C1422       C  0.45658650  0.21724578  0.09848098    -0.16200
C1423       C  0.44340626  0.20240489  0.10975667    -0.01800
C1424       C  0.44396073  0.16888440  0.12498047    -0.09300
C1425       C  0.48492912  0.14559337  0.12153644     0.65000
H1426       H  0.47986939  0.21180740  0.09530082     0.10400
C1427       C  0.42873161  0.22073854  0.10466285     0.63300
H1428       H  0.43394559  0.15602158  0.13260659     0.07800
F1429       F  0.45269872  0.02903184  0.08101515    -0.19700
F1430       F  0.44537058  0.99089065  0.11720956    -0.15900
F1431       F  0.46947096  0.00033559  0.10888992    -0.19400
F1432       F  0.44399405  0.15938621  0.19022636    -0.22800
F1433       F  0.46858447  0.15948110  0.19100389    -0.24300
F1434       F  0.45603314  0.12544119  0.22375398    -0.18300
F1435       F  0.41845020  0.20868954  0.12508823    -0.20700
F1436       F  0.42374441  0.21260956  0.07644775    -0.21900
F1437       F  0.42997800  0.25831530  0.10762118    -0.19100
F1438       F  0.49658984  0.16697483  0.11222071    -0.19200
F1439       F  0.48454700  0.11456103  0.10408793    -0.23000
F1440       F  0.48745637  0.13536480  0.15068868    -0.24600
C1441       C  0.43124171  0.83731360  0.32490499    -0.11400
C1442       C  0.44032297  0.85274342  0.34672160     0.11200
C1443       C  0.45137353  0.87811316  0.33834187    -0.03200
C1444       C  0.45273581  0.88765907  0.30837084    -0.06000
C1445       C  0.44349486  0.87302028  0.28680705    -0.16700
C1446       C  0.43262544  0.84733371  0.29475038     0.02200
C1447       C  0.43917619  0.83908290  0.37756611     0.12100
C1448       C  0.46220743  0.89564368  0.35959066     0.62700
H1449       H  0.46108838  0.90719116  0.30167254     0.12200
C1450       C  0.42255342  0.83126286  0.27144516     0.54900
H1451       H  0.42312590  0.81732516  0.33169784     0.07900
C1452       C  0.43019407  0.85609007  0.39898414    -0.05900
C1453       C  0.43206491  0.84664401  0.42914999    -0.06600
C1454       C  0.44262900  0.82088052  0.43815430    -0.16200
C1455       C  0.45119646  0.80283281  0.41613507    -0.01800
C1456       C  0.44907812  0.81201590  0.38615723    -0.09300
C1457       C  0.41907865  0.88478635  0.38980863     0.65000
H1458       H  0.42551800  0.85995922  0.44599016     0.10400
C1459       C  0.46315936  0.77554233  0.42385020     0.63300
H1460       H  0.45576411  0.79964662  0.36905129     0.07800
F1461       F  0.41281499  0.80634054  0.28365603    -0.19700
F1462       F  0.43072284  0.81342452  0.25007931    -0.15900
F1463       F  0.41462318  0.85902854  0.25802184    -0.19400
F1464       F  0.47608455  0.88281515  0.35326880    -0.22800
F1465       F  0.45926684  0.88864981  0.38914413    -0.24300
F1466       F  0.46203857  0.93324969  0.35562858    -0.18300
F1467       F  0.47107996  0.76504415  0.39912274    -0.20700
F1468       F  0.45698647  0.74432747  0.43601327    -0.21900
F1469       F  0.47286240  0.79108371  0.44370167    -0.19100
F1470       F  0.41148552  0.89836585  0.41397393    -0.19200
F1471       F  0.40910815  0.86946201  0.37039698    -0.23000
F1472       F  0.42604974  0.91376161  0.37581981    -0.24600
C1473       C  0.29077892  0.65681527  0.11067160    -0.11400
C1474       C  0.28582837  0.62596867  0.12652765     0.11200
C1475       C  0.28153993  0.62942747  0.15662036    -0.03200
C1476       C  0.28241671  0.66405667  0.16996370    -0.06000
C1477       C  0.28720483  0.69484446  0.15400400    -0.16700
C1478       C  0.29122155  0.69164379  0.12383553     0.02200
C1479       C  0.28492962  0.59050943  0.11078031     0.12100
C1480       C  0.27586009  0.59684635  0.17434370     0.62700
H1481       H  0.27931963  0.66748343  0.19303559     0.12200
C1482       C  0.29557645  0.72504092  0.10568722     0.54900
H1483       H  0.29407002  0.65342042  0.08771953     0.07900
C1484       C  0.27347901  0.58284802  0.09059196    -0.05900
C1485       C  0.27360381  0.54925333  0.07555780    -0.06600
C1486       C  0.28477685  0.52351681  0.08009306    -0.16200
C1487       C  0.29572323  0.53023055  0.10167479    -0.01800
C1488       C  0.29577846  0.56418643  0.11623862    -0.09300
C1489       C  0.26138168  0.61036001  0.08441490     0.65000
H1490       H  0.26532415  0.54359662  0.05899250     0.10400
C1491       C  0.30712730  0.50160200  0.10975333     0.63300
H1492       H  0.30442011  0.57063327  0.13182284     0.07800
F1493       F  0.28446617  0.75068886  0.10651704    -0.19700
F1494       F  0.29813720  0.71636943  0.07621716    -0.15900
F1495       F  0.30816681  0.74027665  0.11731092    -0.19400
F1496       F  0.28673652  0.57085629  0.17741575    -0.22800
F1497       F  0.26405314  0.58135479  0.15991204    -0.24300
F1498       F  0.27134794  0.60688044  0.20251857    -0.18300
F1499       F  0.31777746  0.50019076  0.08797423    -0.20700
F1500       F  0.30061092  0.46752115  0.11261049    -0.21900
F1501       F  0.31384930  0.50958135  0.13651667    -0.19100
F1502       F  0.25054720  0.59575345  0.06655588    -0.19200
F1503       F  0.26708271  0.64073899  0.07007557    -0.23000
F1504       F  0.25496469  0.62117991  0.11076787    -0.24600
C1505       C  0.26426914  0.97572441  0.21039202    -0.11400
C1506       C  0.25142898  0.97559461  0.22684632     0.11200
C1507       C  0.24368929  0.94263628  0.23199520    -0.03200
C1508       C  0.25035104  0.90949919  0.22361907    -0.06000
C1509       C  0.26377016  0.90961683  0.20849286    -0.16700
C1510       C  0.27025883  0.94347174  0.19975324     0.02200
C1511       C  0.24575104  0.01174004  0.23423696     0.12100
C1512       C  0.22844072  0.94284541  0.24527807     0.62700
H1513       H  0.24524528  0.88350464  0.22896087     0.12200
C1514       C  0.28275823  0.94643860  0.17759416     0.54900
H1515       H  0.26939771  0.00181699  0.20531165     0.07900
C1516       C  0.25045653  0.03084757  0.25976964    -0.05900
C1517       C  0.24565577  0.06692012  0.26350321    -0.06600
C1518       C  0.23664905  0.08374886  0.24226875    -0.16200
C1519       C  0.23368756  0.06615901  0.21504655    -0.01800
C1520       C  0.23800521  0.02986593  0.21180767    -0.09300
C1521       C  0.26020364  0.01310716  0.28308850     0.65000
H1522       H  0.24787447  0.08104923  0.28413434     0.10400
C1523       C  0.22571627  0.08390734  0.18920375     0.63300
H1524       H  0.23551188  0.01558785  0.19132813     0.07800
F1525       F  0.28452436  0.98190027  0.16706232    -0.19700
F1526       F  0.27974241  0.92474510  0.15337234    -0.15900
F1527       F  0.29578916  0.93604077  0.19057677    -0.19400
F1528       F  0.21921518  0.96312990  0.22725414    -0.22800
F1529       F  0.22867324  0.95828072  0.27322653    -0.24300
F1530       F  0.22275926  0.90781192  0.24776939    -0.18300
F1531       F  0.23407979  0.08076910  0.16372186    -0.20700
F1532       F  0.22289922  0.12072872  0.19349209    -0.21900
F1533       F  0.21268977  0.06569277  0.18493729    -0.19100
F1534       F  0.26363344  0.03715879  0.30574801    -0.19200
F1535       F  0.27314248  0.00171967  0.27023628    -0.23000
F1536       F  0.25321631  0.98319964  0.29552860    -0.24600
C1537       C  0.25168057  0.91731693  0.01336583    -0.11400
C1538       C  0.25458945  0.92872938  0.04249372     0.11200
C1539       C  0.24996110  0.96409477  0.05149647    -0.03200
C1540       C  0.24175545  0.98596104  0.03147591    -0.06000
C1541       C  0.23821586  0.97369632  0.00282567    -0.16700
C1542       C  0.24356819  0.93921113  0.99334371     0.02200
C1543       C  0.26194395  0.90252954  0.06350597     0.12100
C1544       C  0.25369542  0.97850549  0.08217940     0.62700
H1545       H  0.23791307  0.01270258  0.03815553     0.12200
C1546       C  0.24061400  0.92553961  0.96217564     0.54900
H1547       H  0.25556491  0.89059751  0.00665788     0.07900
C1548       C  0.25396126  0.87514242  0.07896769    -0.05900
C1549       C  0.26114734  0.85386771  0.10073683    -0.06600
C1550       C  0.27603321  0.85883036  0.10760867    -0.16200
C1551       C  0.28432253  0.88402896  0.09020758    -0.01800
C1552       C  0.27707318  0.90550100  0.06844094    -0.09300
C1553       C  0.23778811  0.86902641  0.07303009     0.65000
H1554       H  0.25489800  0.83432798  0.11372635     0.10400
C1555       C  0.30074580  0.88799699  0.09408195     0.63300
H1556       H  0.28310597  0.92570941  0.05568426     0.07800
F1557       F  0.22576577  0.92112762  0.95829197    -0.19700
F1558       F  0.24728988  0.89219566  0.95684149    -0.15900
F1559       F  0.24583741  0.95057420  0.94158424    -0.19400
F1560       F  0.26870847  0.98065567  0.08532066    -0.22800
F1561       F  0.24815524  0.95529940  0.10381091    -0.24300
F1562       F  0.24796427  0.01308857  0.08682722    -0.18300
F1563       F  0.30697230  0.90723625  0.07068158    -0.20700
F1564       F  0.30719138  0.85374026  0.09517202    -0.21900
F1565       F  0.30385692  0.90663472  0.11996469    -0.19100
F1566       F  0.23203209  0.84152975  0.09084414    -0.19200
F1567       F  0.23576073  0.85899198  0.04374242    -0.23000
F1568       F  0.23006599  0.90081718  0.07850865    -0.24600
C1569       C  0.30773902  0.84404563  0.39325906    -0.11400
C1570       C  0.31620299  0.86720309  0.37521456     0.11200
C1571       C  0.32306982  0.89816239  0.38794531    -0.03200
C1572       C  0.32087936  0.90527772  0.41842232    -0.06000
C1573       C  0.31199513  0.88272750  0.43636086    -0.16700
C1574       C  0.30545678  0.85121012  0.42363627     0.02200
C1575       C  0.31599984  0.86049417  0.34254403     0.12100
C1576       C  0.33238318  0.92397892  0.36928815     0.62700
H1577       H  0.32564950  0.92949394  0.42830667     0.12200
C1578       C  0.29509687  0.82693331  0.44115144     0.54900
H1579       H  0.30224717  0.82119509  0.38281875     0.07900
C1580       C  0.32348271  0.83081239  0.32925173    -0.05900
C1581       C  0.32092976  0.82318977  0.29899852    -0.06600
C1582       C  0.31119324  0.84419822  0.28183454    -0.16200
C1583       C  0.30414109  0.87471815  0.29491182    -0.01800
C1584       C  0.30663104  0.88214282  0.32515300    -0.09300
C1585       C  0.33369105  0.80649501  0.34715818     0.65000
H1586       H  0.32608344  0.79971572  0.28875190     0.10400
C1587       C  0.29327193  0.89787098  0.27772275     0.63300
H1588       H  0.30072137  0.90405490  0.33595770     0.07800
F1589       F  0.30220353  0.81235593  0.46559293    -0.19700
F1590       F  0.28987476  0.79803574  0.42439046    -0.15900
F1591       F  0.28323982  0.84746049  0.45018780    -0.19400
F1592       F  0.32379694  0.94176378  0.34848265    -0.22800
F1593       F  0.34314717  0.90443149  0.35475910    -0.24300
F1594       F  0.33913407  0.95034715  0.38651939    -0.18300
F1595       F  0.28765852  0.92610070  0.29469339    -0.20700
F1596       F  0.28173069  0.87613039  0.26877206    -0.21900
F1597       F  0.30004516  0.91331280  0.25321546    -0.19100
F1598       F  0.34135454  0.78259202  0.32914807    -0.19200
F1599       F  0.32573689  0.78598343  0.36738307    -0.23000
F1600       F  0.34372877  0.82771125  0.36228086    -0.24600
C1601       C  0.36581204  0.81971602  0.19265819    -0.11400
C1602       C  0.36789125  0.85346306  0.17811925     0.11200
C1603       C  0.35627024  0.86912870  0.16182715    -0.03200
C1604       C  0.34259126  0.85164724  0.16234233    -0.06000
C1605       C  0.33995614  0.81942650  0.17908930    -0.16700
C1606       C  0.35200060  0.80227653  0.19355555     0.02200
C1607       C  0.38223056  0.87249672  0.18082104     0.12100
C1608       C  0.35819565  0.90492278  0.14475936     0.62700
H1609       H  0.33361185  0.86443450  0.15059768     0.12200
C1610       C  0.35045757  0.76604037  0.20996409     0.54900
H1611       H  0.37504008  0.80781154  0.20427435     0.07900
C1612       C  0.38576014  0.89425396  0.20583090    -0.05900
C1613       C  0.39948502  0.91180320  0.20678036    -0.06600
C1614       C  0.40969483  0.90793001  0.18374129    -0.16200
C1615       C  0.40572979  0.88815304  0.15792146    -0.01800
C1616       C  0.39219246  0.86997875  0.15725562    -0.09300
C1617       C  0.37535866  0.89748636  0.23199940     0.65000
H1618       H  0.40280378  0.92628833  0.22662388     0.10400
C1619       C  0.41527317  0.88576533  0.13041774     0.63300
H1620       H  0.38929951  0.85384989  0.13795692     0.07800
F1621       F  0.34234323  0.77075125  0.23559571    -0.19700
F1622       F  0.36391290  0.75182539  0.21810202    -0.15900
F1623       F  0.34365715  0.74074014  0.19181046    -0.19400
F1624       F  0.36850716  0.90054200  0.12260628    -0.22800
F1625       F  0.36277159  0.93225206  0.16377601    -0.24300
F1626       F  0.34531493  0.91636196  0.13151106    -0.18300
F1627       F  0.40726741  0.89698073  0.10591472    -0.20700
F1628       F  0.41963160  0.84988544  0.12629014    -0.21900
F1629       F  0.42754147  0.90778773  0.13201824    -0.19100
F1630       F  0.38041447  0.92212803  0.25290580    -0.19200
F1631       F  0.37384100  0.86371497  0.24569544    -0.23000
F1632       F  0.36180070  0.90937473  0.22242490    -0.24600
C1633       C  0.50773854  0.78089648  0.06836108    -0.11400
C1634       C  0.49421147  0.79318925  0.05736360     0.11200
C1635       C  0.48977520  0.78306580  0.02842062    -0.03200
C1636       C  0.49886848  0.75975448  0.01182466    -0.06000
C1637       C  0.51261662  0.74836538  0.02231964    -0.16700
C1638       C  0.51716314  0.75890050  0.05115583     0.02200
C1639       C  0.48530127  0.81795963  0.07635720     0.12100
C1640       C  0.47587100  0.79818014  0.01453743     0.62700
H1641       H  0.49560462  0.75159874  0.98969687     0.12200
C1642       C  0.53168210  0.74635627  0.06395593     0.54900
H1643       H  0.51096691  0.78933754  0.09045290     0.07900
C1644       C  0.47587218  0.80445380  0.09885187    -0.05900
C1645       C  0.46910099  0.82962288  0.11809554    -0.06600
C1646       C  0.47157736  0.86759806  0.11575722    -0.16200
C1647       C  0.47999541  0.88107143  0.09160276    -0.01800
C1648       C  0.48692342  0.85590663  0.07255564    -0.09300
C1649       C  0.47359792  0.76360094  0.10361134     0.65000
H1650       H  0.46261394  0.81949637  0.13652272     0.10400
C1651       C  0.48098579  0.92165401  0.08498466     0.63300
H1652       H  0.49394060  0.86566873  0.05481177     0.07800
F1653       F  0.53323079  0.75640881  0.09342461    -0.19700
F1654       F  0.54306018  0.76190411  0.04806988    -0.15900
F1655       F  0.53266402  0.70860756  0.06245948    -0.19400
F1656       F  0.47720284  0.83563950  0.01085468    -0.22800
F1657       F  0.46395750  0.79096214  0.03251716    -0.24300
F1658       F  0.47315543  0.78295969  0.98695930    -0.18300
F1659       F  0.48905266  0.93912163  0.10665096    -0.20700
F1660       F  0.46701195  0.93600895  0.08402213    -0.21900
F1661       F  0.48756562  0.92851553  0.05779011    -0.19100
F1662       F  0.46286053  0.75656701  0.12459437    -0.19200
F1663       F  0.48648008  0.74781049  0.11330096    -0.23000
F1664       F  0.46938108  0.74712180  0.07740469    -0.24600
C1665       C  0.49606353  0.52910999  0.99589867    -0.11400
C1666       C  0.50539251  0.50051625  0.98710722     0.11200
C1667       C  0.51862709  0.50817848  0.97233804    -0.03200
C1668       C  0.52255743  0.54475231  0.96841285    -0.06000
C1669       C  0.51368440  0.57355328  0.97848060    -0.16700
C1670       C  0.50003631  0.56603452  0.99174279     0.02200
C1671       C  0.50096253  0.46262027  0.99336902     0.12100
C1672       C  0.52848327  0.47799517  0.96053651     0.62700
H1673       H  0.53277484  0.55123429  0.95738174     0.12200
C1674       C  0.49007189  0.59654950  0.00209688     0.54900
H1675       H  0.48579095  0.52215425  0.00653697     0.07900
C1676       C  0.50347549  0.44601382  0.02138480    -0.05900
C1677       C  0.49794514  0.41070870  0.02631346    -0.06600
C1678       C  0.48981545  0.39261309  0.00445681    -0.16200
C1679       C  0.48827665  0.40818516  0.97584749    -0.01800
C1680       C  0.49378648  0.44340081  0.97083940    -0.09300
C1681       C  0.51124551  0.46613987  0.04633647     0.65000
H1682       H  0.49864481  0.39844597  0.04827733     0.10400
C1683       C  0.48032524  0.38949132  0.95058095     0.63300
H1684       H  0.49212523  0.45647240  0.94938862     0.07800
F1685       F  0.47746812  0.58301232  0.01523179    -0.19700
F1686       F  0.48603526  0.61806558  0.97809019    -0.15900
F1687       F  0.49729268  0.61798370  0.02267124    -0.19400
F1688       F  0.52138623  0.45944792  0.93807852    -0.22800
F1689       F  0.53196824  0.45347253  0.98292023    -0.24300
F1690       F  0.54144173  0.49182570  0.94914561    -0.18300
F1691       F  0.46744984  0.40797169  0.94467053    -0.20700
F1692       F  0.47710534  0.35325206  0.95688831    -0.21900
F1693       F  0.48902338  0.39033509  0.92539977    -0.19100
F1694       F  0.51235074  0.44479104  0.07178143    -0.19200
F1695       F  0.50363732  0.49754742  0.05346631    -0.23000
F1696       F  0.52521090  0.47576531  0.03757795    -0.24600
C1697       C  0.51115674  0.61303370  0.82788184    -0.11400
C1698       C  0.50800574  0.57559645  0.83172159     0.11200
C1699       C  0.51279677  0.55772135  0.85796684    -0.03200
C1700       C  0.51991082  0.57828131  0.88014247    -0.06000
C1701       C  0.52238073  0.61623355  0.87726389    -0.16700
C1702       C  0.51815670  0.63386250  0.85028775     0.02200
C1703       C  0.49895353  0.55592325  0.80892369     0.12100
C1704       C  0.51024941  0.51698197  0.86265907     0.62700
H1705       H  0.52318403  0.56481025  0.90055813     0.12200
C1706       C  0.52085973  0.67441268  0.84502212     0.54900
H1707       H  0.50758242  0.62615848  0.80751499     0.07900
C1708       C  0.48347586  0.55715940  0.80934072    -0.05900
C1709       C  0.47550383  0.53442325  0.78986788    -0.06600
C1710       C  0.48240303  0.51097209  0.76943276    -0.16200
C1711       C  0.49796428  0.51236659  0.76724195    -0.01800
C1712       C  0.50592962  0.53433517  0.78745062    -0.09300
C1713       C  0.47542215  0.58266331  0.83026532     0.65000
H1714       H  0.46368332  0.53481652  0.79058593     0.10400
C1715       C  0.50622390  0.49216649  0.74305504     0.63300
H1716       H  0.51776528  0.53455362  0.78689653     0.07800
F1717       F  0.51145173  0.69477314  0.86241788    -0.19700
F1718       F  0.51854405  0.68417574  0.81561528    -0.15900
F1719       F  0.53516583  0.68313919  0.85205647    -0.19400
F1720       F  0.51776989  0.49749205  0.84129803    -0.22800
F1721       F  0.49550837  0.50899750  0.86056592    -0.24300
F1722       F  0.51504315  0.50533302  0.89028560    -0.18300
F1723       F  0.52083183  0.50211110  0.74213723    -0.20700
F1724       F  0.50021758  0.50033508  0.71558666    -0.21900
F1725       F  0.50553371  0.45485205  0.74812656    -0.19100
F1726       F  0.46040355  0.57933468  0.82761883    -0.19200
F1727       F  0.47912452  0.61854977  0.82378303    -0.23000
F1728       F  0.47916597  0.57492511  0.85939278    -0.24600
C1729       C  0.64097048  0.61573228  0.91217402    -0.11400
C1730       C  0.63069098  0.60901497  0.93458751     0.11200
C1731       C  0.63391123  0.58301986  0.95717112    -0.03200
C1732       C  0.64817899  0.56837206  0.95877603    -0.06000
C1733       C  0.65895754  0.57768148  0.93770335    -0.16700
C1734       C  0.65489586  0.59945714  0.91272790     0.02200
C1735       C  0.61641028  0.62849260  0.93303491     0.12100
C1736       C  0.62225624  0.57053794  0.97909740     0.62700
H1737       H  0.65117139  0.55087492  0.97730135     0.12200
C1738       C  0.66519437  0.60697269  0.88693829     0.54900
H1739       H  0.63808867  0.63435205  0.89427008     0.07900
C1740       C  0.61367470  0.66131764  0.94869093    -0.05900
C1741       C  0.59927760  0.67528179  0.94927707    -0.06600
C1742       C  0.58788382  0.65885622  0.93298047    -0.16200
C1743       C  0.59151611  0.62988180  0.91307924    -0.01800
C1744       C  0.60557249  0.61433219  0.91448613    -0.09300
C1745       C  0.62598975  0.68172495  0.96407634     0.65000
H1746       H  0.59677335  0.69843193  0.96331659     0.10400
C1747       C  0.58081025  0.61439961  0.89058595     0.63300
H1748       H  0.60815377  0.59042090  0.90131384     0.07800
F1749       F  0.67355898  0.63761124  0.89298254    -0.19700
F1750       F  0.65742673  0.61329723  0.86101451    -0.15900
F1751       F  0.67425710  0.57727543  0.88193223    -0.19400
F1752       F  0.61086046  0.55442659  0.96376838    -0.22800
F1753       F  0.61689321  0.59993805  0.99491949    -0.24300
F1754       F  0.62765105  0.54514396  0.99924928    -0.18300
F1755       F  0.58807438  0.59691534  0.86767347    -0.20700
F1756       F  0.57258883  0.64223708  0.87796943    -0.21900
F1757       F  0.57170307  0.58917128  0.90425032    -0.19100
F1758       F  0.62112074  0.71377645  0.97705614    -0.19200
F1759       F  0.63661105  0.69081891  0.94342009    -0.23000
F1760       F  0.63222072  0.66016729  0.98597946    -0.24600
C1761       C  0.75953353  0.46586245  0.03856089    -0.11400
C1762       C  0.75206370  0.44663172  0.06093577     0.11200
C1763       C  0.73677980  0.45151615  0.06398835    -0.03200
C1764       C  0.72924358  0.47238819  0.04246523    -0.06000
C1765       C  0.73658823  0.49129823  0.01955440    -0.16700
C1766       C  0.75217334  0.48922406  0.01835780     0.02200
C1767       C  0.76067541  0.42473570  0.08292811     0.12100
C1768       C  0.72863223  0.43677058  0.09098243     0.62700
H1769       H  0.71749198  0.47524457  0.04409920     0.12200
C1770       C  0.76117963  0.51177262  0.99650076     0.54900
H1771       H  0.77130979  0.46311877  0.03766042     0.07900
C1772       C  0.76191381  0.38616283  0.08149127    -0.05900
C1773       C  0.76821022  0.36721560  0.10576181    -0.06600
C1774       C  0.77407008  0.38565648  0.13055766    -0.16200
C1775       C  0.77430457  0.42483860  0.13000603    -0.01800
C1776       C  0.76733889  0.44341896  0.10636988    -0.09300
C1777       C  0.75723544  0.36535646  0.05388823     0.65000
H1778       H  0.76862168  0.33758401  0.10543220     0.10400
C1779       C  0.78151130  0.44760174  0.15415556     0.63300
H1780       H  0.76665044  0.47303921  0.10630089     0.07800
F1781       F  0.77598478  0.50439097  0.99881124    -0.19700
F1782       F  0.75926334  0.54864011  0.00221562    -0.15900
F1783       F  0.75696475  0.50427079  0.96768065    -0.19400
F1784       F  0.73440695  0.45223410  0.11636454    -0.22800
F1785       F  0.72995846  0.39917045  0.09297378    -0.24300
F1786       F  0.71388302  0.44514025  0.08995948    -0.18300
F1787       F  0.78089471  0.48476788  0.14797359    -0.20700
F1788       F  0.79611335  0.43821107  0.15659603    -0.21900
F1789       F  0.77452565  0.44185142  0.18100010    -0.19100
F1790       F  0.75866143  0.32786134  0.05765342    -0.19200
F1791       F  0.76594355  0.37600065  0.03024539    -0.23000
F1792       F  0.74282611  0.37258178  0.04683340    -0.24600
C1793       C  0.52127151  0.73802618  0.25526094    -0.11400
C1794       C  0.50680296  0.74037968  0.24616926     0.11200
C1795       C  0.49828518  0.70846463  0.24227724    -0.03200
C1796       C  0.50461342  0.67446599  0.24936907    -0.06000
C1797       C  0.51928378  0.67191130  0.25829116    -0.16700
C1798       C  0.52789417  0.70445950  0.26113006     0.02200
C1799       C  0.50176620  0.77716649  0.23826547     0.12100
C1800       C  0.48292153  0.71026644  0.22960614     0.62700
H1801       H  0.49831750  0.64951248  0.24702858     0.12200
C1802       C  0.54389618  0.70507515  0.27069115     0.54900
H1803       H  0.52743681  0.76327273  0.25709490     0.07900
C1804       C  0.49614546  0.80146887  0.25981400    -0.05900
C1805       C  0.49220045  0.83679920  0.25056592    -0.06600
C1806       C  0.49474609  0.84851390  0.22133107    -0.16200
C1807       C  0.50245281  0.82604608  0.20138617    -0.01800
C1808       C  0.50535901  0.78997396  0.20979862    -0.09300
C1809       C  0.49465345  0.79041885  0.29227084     0.65000
H1810       H  0.48630198  0.85473495  0.26549032     0.10400
C1811       C  0.50753647  0.83898784  0.17105321     0.63300
H1812       H  0.51079293  0.77183932  0.19428921     0.07800
F1813       F  0.54926345  0.74037014  0.27357585    -0.19700
F1814       F  0.55250933  0.68784130  0.24972820    -0.15900
F1815       F  0.54538540  0.68825697  0.29804854    -0.19400
F1816       F  0.48336405  0.72544250  0.20139947    -0.22800
F1817       F  0.47408967  0.73158336  0.24741150    -0.24300
F1818       F  0.47663496  0.67584689  0.22759110    -0.18300
F1819       F  0.52230511  0.83167367  0.16801474    -0.20700
F1820       F  0.50556451  0.87624218  0.16702202    -0.21900
F1821       F  0.49996976  0.82047513  0.14921900    -0.19100
F1822       F  0.48827750  0.81781222  0.30902674    -0.19200
F1823       F  0.50836516  0.78344236  0.30385997    -0.23000
F1824       F  0.48616240  0.75929448  0.29507247    -0.24600
C1825       C  0.51132616  0.70608493  0.45151404    -0.11400
C1826       C  0.50357181  0.68092371  0.43422027     0.11200
C1827       C  0.48852921  0.67515176  0.43999777    -0.03200
C1828       C  0.48155457  0.69650538  0.46184112    -0.06000
C1829       C  0.48902177  0.72367211  0.47797270    -0.16700
C1830       C  0.50442021  0.72764945  0.47336995     0.02200
C1831       C  0.51144268  0.66190253  0.40957968     0.12100
C1832       C  0.47985173  0.64668111  0.42297286     0.62700
H1833       H  0.47001814  0.69246921  0.46603011     0.12200
C1834       C  0.51378456  0.75397936  0.49130513     0.54900
H1835       H  0.52289805  0.70931361  0.44709860     0.07900
C1836       C  0.51364721  0.67898886  0.38157475    -0.05900
C1837       C  0.52057878  0.65914993  0.35880726    -0.06600
C1838       C  0.52535403  0.62294796  0.36304462    -0.16200
C1839       C  0.52374257  0.60637044  0.39143396    -0.01800
C1840       C  0.51686240  0.62634336  0.41436736    -0.09300
C1841       C  0.50854616  0.71792136  0.37563827     0.65000
H1842       H  0.52193690  0.67147834  0.33702669     0.10400
C1843       C  0.52951387  0.56816316  0.39762094     0.63300
H1844       H  0.51539819  0.61409248  0.43613791     0.07800
F1845       F  0.51025981  0.78977527  0.48407438    -0.19700
F1846       F  0.52855826  0.74936173  0.48572081    -0.15900
F1847       F  0.51160325  0.74796510  0.52137436    -0.19400
F1848       F  0.48567085  0.61232082  0.42819262    -0.22800
F1849       F  0.48040430  0.65420022  0.39285123    -0.24300
F1850       F  0.46530378  0.64599643  0.43149296    -0.18300
F1851       F  0.52881286  0.55939007  0.42757016    -0.20700
F1852       F  0.54397221  0.56589376  0.38880224    -0.21900
F1853       F  0.52135055  0.54270286  0.38219546    -0.19100
F1854       F  0.51102488  0.72847400  0.34648768    -0.19200
F1855       F  0.51597698  0.74189550  0.39389503    -0.23000
F1856       F  0.49373214  0.72076058  0.38108357    -0.24600
C1857       C  0.48089208  0.39999885  0.16165245    -0.11400
C1858       C  0.48376138  0.43681002  0.15414164     0.11200
C1859       C  0.47959795  0.45008076  0.12567914    -0.03200
C1860       C  0.47257773  0.42605769  0.10583719    -0.06000
C1861       C  0.47016326  0.38912794  0.11300985    -0.16700
C1862       C  0.47424222  0.37574180  0.14136102     0.02200
C1863       C  0.49290451  0.45905881  0.17489770     0.12100
C1864       C  0.48307622  0.48896212  0.11572609     0.62700
H1865       H  0.46962356  0.43541705  0.08375476     0.12200
C1866       C  0.47165967  0.33596476  0.14984641     0.54900
H1867       H  0.48444904  0.39004853  0.18318087     0.07900
C1868       C  0.48702199  0.47882128  0.19912446    -0.05900
C1869       C  0.49666387  0.49821491  0.21794335    -0.06600
C1870       C  0.51196071  0.49767693  0.21389371    -0.16200
C1871       C  0.51777836  0.47730351  0.18969175    -0.01800
C1872       C  0.50809684  0.45835776  0.17080110    -0.09300
C1873       C  0.47067554  0.47913305  0.20531634     0.65000
H1874       H  0.49229065  0.51340293  0.23652888     0.10400
C1875       C  0.53405491  0.47604554  0.18297568     0.63300
H1876       H  0.51232845  0.44240317  0.15249085     0.07800
F1877       F  0.47481340  0.32936643  0.17948137    -0.19700
F1878       F  0.48044649  0.31350282  0.13283053    -0.15900
F1879       F  0.45716200  0.32692620  0.14500967    -0.19400
F1880       F  0.49799648  0.49481181  0.11654642    -0.22800
F1881       F  0.47632443  0.51379538  0.13418209    -0.24300
F1882       F  0.47830046  0.49576544  0.08702710    -0.18300
F1883       F  0.54132409  0.45679985  0.20495383    -0.20700
F1884       F  0.53953687  0.51124835  0.18117316    -0.21900
F1885       F  0.53694910  0.45892962  0.15622251    -0.19100
F1886       F  0.46745244  0.49644146  0.23181877    -0.19200
F1887       F  0.46539474  0.44371414  0.20714735    -0.23000
F1888       F  0.46340842  0.49738020  0.18281188    -0.24600
C1889       C  0.57038530  0.59873278  0.08312994    -0.11400
C1890       C  0.56976027  0.62587303  0.10496028     0.11200
C1891       C  0.56857127  0.66298466  0.09646973    -0.03200
C1892       C  0.56623234  0.67139657  0.06634619    -0.06000
C1893       C  0.56489000  0.64389348  0.04459281    -0.16700
C1894       C  0.56783527  0.60683784  0.05290104     0.02200
C1895       C  0.56767950  0.61426219  0.13632624     0.12100
C1896       C  0.56918567  0.69332419  0.11941863     0.62700
H1897       H  0.56473802  0.69973946  0.05986997     0.12200
C1898       C  0.56751450  0.57542509  0.03084973     0.54900
H1899       H  0.57167831  0.57059954  0.09042778     0.07900
C1900       C  0.55366490  0.60354234  0.14657601    -0.05900
C1901       C  0.55205147  0.59330861  0.17641451    -0.06600
C1902       C  0.56384984  0.59354199  0.19626550    -0.16200
C1903       C  0.57780344  0.60519802  0.18638783    -0.01800
C1904       C  0.57953400  0.61506757  0.15618674    -0.09300
C1905       C  0.54041454  0.60289031  0.12610445     0.65000
H1906       H  0.54142696  0.58483621  0.18462560     0.10400
C1907       C  0.59078392  0.60602822  0.20729932     0.63300
H1908       H  0.59012728  0.62342769  0.14779496     0.07800
F1909       F  0.57733829  0.58205369  0.00805236    -0.19700
F1910       F  0.57135208  0.54239873  0.04395175    -0.15900
F1911       F  0.55356800  0.57154629  0.01944544    -0.19400
F1912       F  0.58251836  0.69226886  0.13386734    -0.22800
F1913       F  0.55811058  0.68883481  0.14005971    -0.24300
F1914       F  0.56765418  0.72763958  0.10657190    -0.18300
F1915       F  0.59334135  0.57118662  0.21825553    -0.20700
F1916       F  0.58796594  0.62940971  0.23067335    -0.21900
F1917       F  0.60335395  0.61813058  0.19316520    -0.19100
F1918       F  0.52768868  0.59438673  0.14133115    -0.19200
F1919       F  0.54235241  0.57682734  0.10429557    -0.23000
F1920       F  0.53851038  0.63682207  0.11287419    -0.24600
C1921       C  0.67648254  0.60637247  0.16241000    -0.11400
C1922       C  0.68460037  0.62396609  0.14007243     0.11200
C1923       C  0.69389798  0.65352560  0.14736204    -0.03200
C1924       C  0.69498519  0.66407689  0.17716894    -0.06000
C1925       C  0.68732364  0.64583176  0.19994131    -0.16700
C1926       C  0.67784500  0.61631955  0.19253165     0.02200
C1927       C  0.68436583  0.60898581  0.10954043     0.12100
C1928       C  0.70290852  0.67333647  0.12380033     0.62700
H1929       H  0.70234877  0.68607904  0.18303380     0.12200
C1930       C  0.66937239  0.59492826  0.21595869     0.54900
H1931       H  0.66951335  0.58371757  0.15609640     0.07900
C1932       C  0.69366638  0.57982570  0.10143908    -0.05900
C1933       C  0.69509157  0.57132966  0.07123277    -0.06600
C1934       C  0.68738053  0.59053139  0.04896130    -0.16200
C1935       C  0.67720286  0.61797884  0.05744859    -0.01800
C1936       C  0.67591933  0.62673635  0.08782378    -0.09300
C1937       C  0.70217200  0.55804185  0.12460965     0.65000
H1938       H  0.70261733  0.54991711  0.06478382     0.10400
C1939       C  0.66772338  0.63800682  0.03493539     0.63300
H1940       H  0.66873773  0.64863638  0.09482487     0.07800
F1941       F  0.67894648  0.57463312  0.23320455    -0.19700
F1942       F  0.65950181  0.57081582  0.20332457    -0.15900
F1943       F  0.66159947  0.61871030  0.23383084    -0.19400
F1944       F  0.69369761  0.69051960  0.10378149    -0.22800
F1945       F  0.71164624  0.64870310  0.10876630    -0.24300
F1946       F  0.71194602  0.69970546  0.13602476    -0.18300
F1947       F  0.66065526  0.61299831  0.01694736    -0.20700
F1948       F  0.67628402  0.66100649  0.01768649    -0.21900
F1949       F  0.65713592  0.65915049  0.04860270    -0.19100
F1950       F  0.71128332  0.53232074  0.11174686    -0.19200
F1951       F  0.69249399  0.53970146  0.14302775    -0.23000
F1952       F  0.71074257  0.58113473  0.14153699    -0.24600
C1953       C  0.64314586  0.59950773  0.32600230    -0.11400
C1954       C  0.63177562  0.61609913  0.31027535     0.11200
C1955       C  0.63413447  0.65040180  0.29631689    -0.03200
C1956       C  0.64836816  0.66533313  0.29625918    -0.06000
C1957       C  0.66021324  0.64745456  0.31021330    -0.16700
C1958       C  0.65734731  0.61437058  0.32649055     0.02200
C1959       C  0.61742533  0.59690803  0.30950971     0.12100
C1960       C  0.62162588  0.67110835  0.28172744     0.62700
H1961       H  0.65038024  0.69077788  0.28450057     0.12200
C1962       C  0.66900962  0.59357884  0.34382720     0.54900
H1963       H  0.64081593  0.57384893  0.33724080     0.07900
C1964       C  0.61408878  0.56993474  0.28801259    -0.05900
C1965       C  0.59988220  0.55487980  0.28750456    -0.06600
C1966       C  0.58915049  0.56544384  0.30815222    -0.16200
C1967       C  0.59334042  0.58837160  0.33222180    -0.01800
C1968       C  0.60728428  0.60457303  0.33188864    -0.09300
C1969       C  0.62541244  0.55768316  0.26545129     0.65000
H1970       H  0.59683575  0.53639139  0.26983595     0.10400
C1971       C  0.58319198  0.59735629  0.35787420     0.63300
H1972       H  0.61028888  0.62391280  0.34903700     0.07800
F1973       F  0.67883673  0.57772069  0.32440635    -0.19700
F1974       F  0.66308906  0.56568740  0.36100903    -0.15900
F1975       F  0.67622118  0.61709527  0.36287071    -0.19400
F1976       F  0.61119516  0.67948081  0.30287718    -0.22800
F1977       F  0.61526402  0.64995500  0.25988970    -0.24300
F1978       F  0.62628109  0.70354891  0.26873913    -0.18300
F1979       F  0.59110411  0.60473179  0.38338526    -0.20700
F1980       F  0.57405841  0.56810473  0.36421404    -0.21900
F1981       F  0.57492261  0.62789433  0.35081637    -0.19100
F1982       F  0.61996760  0.53099437  0.24671222    -0.19200
F1983       F  0.63741345  0.54326132  0.28004799    -0.23000
F1984       F  0.62985779  0.58709100  0.24821816    -0.24600
C1985       C  0.73867090  0.61415671  0.41618033    -0.11400
C1986       C  0.74443769  0.57934879  0.40966698     0.11200
C1987       C  0.74145643  0.56371295  0.38149892    -0.03200
C1988       C  0.73311351  0.58375330  0.36082238    -0.06000
C1989       C  0.72779219  0.61910956  0.36667392    -0.16700
C1990       C  0.73039762  0.63444184  0.39513228     0.02200
C1991       C  0.75225199  0.55856424  0.43363780     0.12100
C1992       C  0.74659856  0.52600851  0.37179135     0.62700
H1993       H  0.73108896  0.57174795  0.33928535     0.12200
C1994       C  0.72393682  0.67117053  0.40374883     0.54900
H1995       H  0.74067347  0.62528886  0.43806747     0.07900
C1996       C  0.76748923  0.56172258  0.43858265    -0.05900
C1997       C  0.77422684  0.53856568  0.45984962    -0.06600
C1998       C  0.76627479  0.51212151  0.47615360    -0.16200
C1999       C  0.75092389  0.50908523  0.47088918    -0.01800
C2000       C  0.74424169  0.53276863  0.45003876    -0.09300
C2001       C  0.77656829  0.58900736  0.42094804     0.65000
H2002       H  0.78586094  0.54093463  0.46382583     0.10400
C2003       C  0.74158019  0.47988479  0.48579578     0.63300
H2004       H  0.73263744  0.53067262  0.44558506     0.07800
F2005       F  0.73080133  0.69906740  0.38821668    -0.19700
F2006       F  0.72558989  0.67799068  0.43379694    -0.15900
F2007       F  0.70913420  0.67157096  0.39738226    -0.19400
F2008       F  0.73452880  0.50371811  0.36792950    -0.22800
F2009       F  0.75590242  0.50914662  0.39177735    -0.24300
F2010       F  0.75392773  0.52905419  0.34497038    -0.18300
F2011       F  0.74054669  0.48660434  0.51593314    -0.20700
F2012       F  0.74771916  0.44581979  0.48110536    -0.21900
F2013       F  0.72750635  0.47909263  0.47448097    -0.19100
F2014       F  0.79121560  0.58749478  0.42861584    -0.19200
F2015       F  0.77159643  0.62412954  0.42624099    -0.23000
F2016       F  0.77540044  0.58165193  0.39091890    -0.24600
C2017       C  0.75507978  0.54159316  0.25135944    -0.11400
C2018       C  0.74624991  0.51244974  0.26128625     0.11200
C2019       C  0.73306817  0.51913393  0.27643639    -0.03200
C2020       C  0.72865879  0.55532100  0.27959445    -0.06000
C2021       C  0.73698056  0.58472609  0.26840649    -0.16700
C2022       C  0.75053535  0.57818789  0.25457960     0.02200
C2023       C  0.75049698  0.47488423  0.25425883     0.12100
C2024       C  0.72359027  0.48821073  0.28876756     0.62700
H2025       H  0.71836525  0.56087335  0.29049705     0.12200
C2026       C  0.75962124  0.60935428  0.24216532     0.54900
H2027       H  0.76524119  0.53531123  0.24010704     0.07900
C2028       C  0.74634055  0.45851984  0.22713457    -0.05900
C2029       C  0.75005518  0.42185261  0.22247797    -0.06600
C2030       C  0.75837127  0.40243576  0.24339880    -0.16200
C2031       C  0.76150773  0.41801788  0.27141938    -0.01800
C2032       C  0.75780741  0.45462216  0.27611552    -0.09300
C2033       C  0.73881638  0.48026329  0.20261554     0.65000
H2034       H  0.74790438  0.40944727  0.20109490     0.10400
C2035       C  0.76926425  0.39739194  0.29618955     0.63300
H2036       H  0.76057227  0.46754737  0.29702798     0.07800
F2037       F  0.77235013  0.59685611  0.22900854    -0.19700
F2038       F  0.76340191  0.63297922  0.26481177    -0.15900
F2039       F  0.75162964  0.62824849  0.22097322    -0.19400
F2040       F  0.73125082  0.46906019  0.31026109    -0.22800
F2041       F  0.71965875  0.46439458  0.26636330    -0.24300
F2042       F  0.71086322  0.50119197  0.30162580    -0.18300
F2043       F  0.76265937  0.40492719  0.32315902    -0.20700
F2044       F  0.78371606  0.40843799  0.29742327    -0.21900
F2045       F  0.76871574  0.35985876  0.29213275    -0.19100
F2046       F  0.73564298  0.45865280  0.17828106    -0.19200
F2047       F  0.74785042  0.50839950  0.19320693    -0.23000
F2048       F  0.72584153  0.49490240  0.21285578    -0.24600
C2049       C  0.54117831  0.33412925  0.37227136    -0.11400
C2050       C  0.52822280  0.35439207  0.37158098     0.11200
C2051       C  0.51520708  0.33975903  0.38357573    -0.03200
C2052       C  0.51600194  0.30640596  0.39900874    -0.06000
C2053       C  0.52928175  0.28732165  0.40200032    -0.16700
C2054       C  0.54192563  0.30021466  0.38685784     0.02200
C2055       C  0.52860471  0.39018646  0.35664087     0.12100
C2056       C  0.50064246  0.35935049  0.38011793     0.62700
H2057       H  0.50628445  0.29559660  0.40958999     0.12200
C2058       C  0.55613817  0.27869141  0.38569215     0.54900
H2059       H  0.55080922  0.34549884  0.36162473     0.07900
C2060       C  0.53342378  0.42221568  0.37128726    -0.05900
C2061       C  0.53456156  0.45477990  0.35472019    -0.06600
C2062       C  0.53121973  0.45545276  0.32438032    -0.16200
C2063       C  0.52629832  0.42343426  0.30992499    -0.01800
C2064       C  0.52505407  0.39110592  0.32647940    -0.09300
C2065       C  0.53794864  0.42154652  0.40376067     0.65000
H2066       H  0.53850244  0.47965425  0.36503389     0.10400
C2067       C  0.52295083  0.42309790  0.27696138     0.63300
H2068       H  0.52167287  0.36590296  0.31588136     0.07800
F2069       F  0.56522305  0.29139921  0.36326335    -0.19700
F2070       F  0.55329673  0.24211577  0.38013210    -0.15900
F2071       F  0.56351914  0.28200473  0.41235964    -0.19400
F2072       F  0.49714030  0.36224656  0.35030956    -0.22800
F2073       F  0.50145587  0.39405915  0.39211213    -0.24300
F2074       F  0.48940985  0.34069914  0.39424647    -0.18300
F2075       F  0.51808622  0.38917869  0.26752425    -0.20700
F2076       F  0.53549048  0.43159933  0.26127132    -0.21900
F2077       F  0.51217704  0.44846720  0.27066397    -0.19100
F2078       F  0.54055854  0.45645840  0.41441325    -0.19200
F2079       F  0.55061182  0.40125155  0.40692275    -0.23000
F2080       F  0.52707539  0.40593214  0.42101779    -0.24600
C2081       C  0.46870428  0.31293186  0.59848662    -0.11400
C2082       C  0.48231501  0.32414223  0.58709919     0.11200
C2083       C  0.48873009  0.35654852  0.59846746    -0.03200
C2084       C  0.48149933  0.37590595  0.62126929    -0.06000
C2085       C  0.46803285  0.36437580  0.63349305    -0.16700
C2086       C  0.46147754  0.33213628  0.62159577     0.02200
C2087       C  0.48971304  0.30139062  0.56353842     0.12100
C2088       C  0.50319713  0.37092764  0.58653504     0.62700
H2089       H  0.48656861  0.40034793  0.63005539     0.12200
C2090       C  0.44694217  0.31772568  0.63290358     0.54900
H2091       H  0.46383939  0.28845787  0.58926826     0.07900
C2092       C  0.49687656  0.26771838  0.57013335    -0.05900
C2093       C  0.50427212  0.24892393  0.54714217    -0.06600
C2094       C  0.50491193  0.26273766  0.51799561    -0.16200
C2095       C  0.49772651  0.29616560  0.51132271    -0.01800
C2096       C  0.49006951  0.31463699  0.53411861    -0.09300
C2097       C  0.49680343  0.25165759  0.60134079     0.65000
H2098       H  0.50976322  0.22325595  0.55180778     0.10400
C2099       C  0.49812529  0.31204329  0.48012700     0.63300
H2100       H  0.48440170  0.33996834  0.52921151     0.07800
F2101       F  0.44859852  0.30416624  0.66139620    -0.19700
F2102       F  0.44158733  0.28971071  0.61535651    -0.15900
F2103       F  0.43671641  0.34553826  0.63288881    -0.19400
F2104       F  0.50127332  0.38399195  0.55791854    -0.22800
F2105       F  0.51353998  0.34331767  0.58636507    -0.24300
F2106       F  0.50862193  0.39927490  0.60363674    -0.18300
F2107       F  0.49212268  0.28723460  0.46048052    -0.20700
F2108       F  0.51243264  0.31921232  0.47200763    -0.21900
F2109       F  0.49030996  0.34442093  0.47799830    -0.19100
F2110       F  0.50594384  0.22154893  0.60372188    -0.19200
F2111       F  0.48280650  0.24057630  0.60870623    -0.23000
F2112       F  0.50149467  0.27753849  0.62154013    -0.24600
C2113       C  0.50744868  0.10479839  0.33049859    -0.11400
C2114       C  0.50413510  0.06801385  0.33701909     0.11200
C2115       C  0.50804129  0.05378035  0.36529818    -0.03200
C2116       C  0.51455547  0.07731192  0.38644620    -0.06000
C2117       C  0.51719883  0.11477337  0.38060644    -0.16700
C2118       C  0.51370402  0.12861344  0.35181571     0.02200
C2119       C  0.49625967  0.04541450  0.31403700     0.12100
C2120       C  0.50525189  0.01385694  0.37317651     0.62700
H2121       H  0.51725830  0.06665137  0.40825574     0.12200
C2122       C  0.51642374  0.16834308  0.34340824     0.54900
H2123       H  0.50460544  0.11510034  0.30863520     0.07900
C2124       C  0.48094392  0.04818892  0.30940739    -0.05900
C2125       C  0.47425489  0.02661750  0.28718880    -0.06600
C2126       C  0.48226052  0.00230810  0.26931642    -0.16200
C2127       C  0.49757014  0.99881344  0.27450668    -0.01800
C2128       C  0.50428531  0.02084456  0.29648848    -0.09300
C2129       C  0.47163853  0.07368766  0.32807971     0.65000
H2130       H  0.46261413  0.02897444  0.28329705     0.10400
C2131       C  0.50675362  0.97090661  0.25796536     0.63300
H2132       H  0.51595227  0.01903454  0.30023954     0.07800
F2133       F  0.50657931  0.19054734  0.35810884    -0.19700
F2134       F  0.51473341  0.17428568  0.31318012    -0.15900
F2135       F  0.53053534  0.17827477  0.35096092    -0.19400
F2136       F  0.51374477  0.99161802  0.35538872    -0.22800
F2137       F  0.49068629  0.00523448  0.36891555    -0.24300
F2138       F  0.50866337  0.00629267  0.40251052    -0.18300
F2139       F  0.52077320  0.96842038  0.26940727    -0.20700
F2140       F  0.50787716  0.98067904  0.22833063    -0.21900
F2141       F  0.50037210  0.93667613  0.26041529    -0.19100
F2142       F  0.45698141  0.07155061  0.32060801    -0.19200
F2143       F  0.47610621  0.10950141  0.32389214    -0.23000
F2144       F  0.47299799  0.06456654  0.35780612    -0.24600
C2145       C  0.48948906  0.03625038  0.48500223    -0.11400
C2146       C  0.50056216  0.00982952  0.48247624     0.11200
C2147       C  0.51501618  0.01992070  0.47573262    -0.03200
C2148       C  0.51821931  0.05699241  0.47423486    -0.06000
C2149       C  0.50745866  0.08398433  0.47854485    -0.16700
C2150       C  0.49270488  0.07379349  0.48264464     0.02200
C2151       C  0.49704010  0.97161511  0.48840244     0.12100
C2152       C  0.52704356  0.99174968  0.47058787     0.62700
H2153       H  0.52935842  0.06509810  0.46957256     0.12200
C2154       C  0.48063657  0.10203401  0.48514137     0.54900
H2155       H  0.47841462  0.02714539  0.48939432     0.07900
C2156       C  0.49806425  0.95712309  0.51743219    -0.05900
C2157       C  0.49556032  0.91977586  0.52143269    -0.06600
C2158       C  0.49088791  0.89790112  0.49782952    -0.16200
C2159       C  0.49023210  0.91219673  0.46857606    -0.01800
C2160       C  0.49349156  0.94928700  0.46431345    -0.09300
C2161       C  0.50074827  0.98131335  0.54426592     0.65000
H2162       H  0.49560908  0.90825443  0.54369426     0.10400
C2163       C  0.48640287  0.88839525  0.44210968     0.63300
H2164       H  0.49306258  0.96140619  0.44229879     0.07800
F2165       F  0.48381305  0.12623178  0.50778815    -0.19700
F2166       F  0.46724498  0.08592634  0.49120212    -0.15900
F2167       F  0.47938549  0.12112884  0.45864006    -0.19400
F2168       F  0.52328726  0.96918797  0.44724595    -0.22800
F2169       F  0.52904727  0.97058042  0.49580126    -0.24300
F2170       F  0.54028834  0.00810726  0.46365628    -0.18300
F2171       F  0.48784091  0.90741605  0.41555484    -0.20700
F2172       F  0.47214763  0.87616860  0.44405363    -0.21900
F2173       F  0.49570162  0.85857945  0.44133112    -0.19100
F2174       F  0.50127450  0.96093584  0.57021801    -0.19200
F2175       F  0.48950637  0.00638685  0.54687621    -0.23000
F2176       F  0.51383921  0.99991906  0.54141227    -0.24600
C2177       C  0.69425834  0.84324708  0.35457311    -0.11400
C2178       C  0.70657762  0.85311857  0.37096447     0.11200
C2179       C  0.71878098  0.82940496  0.37212303    -0.03200
C2180       C  0.71841771  0.79690682  0.35539820    -0.06000
C2181       C  0.70621771  0.78729678  0.33794278    -0.16700
C2182       C  0.69381754  0.81109630  0.33759315     0.02200
C2183       C  0.70618754  0.88890202  0.38639767     0.12100
C2184       C  0.73201713  0.83825190  0.39116608     0.62700
H2185       H  0.72773167  0.77864259  0.35595621     0.12200
C2186       C  0.68024232  0.80396940  0.31893938     0.54900
H2187       H  0.68499588  0.86170024  0.35484046     0.07900
C2188       C  0.70858191  0.92231736  0.37097870    -0.05900
C2189       C  0.70764714  0.95528850  0.38678942    -0.06600
C2190       C  0.70377966  0.95587350  0.41688319    -0.16200
C2191       C  0.70102733  0.92249667  0.43220637    -0.01800
C2192       C  0.70228596  0.88939737  0.41651339    -0.09300
C2193       C  0.71176158  0.92325818  0.33785104     0.65000
H2194       H  0.70970410  0.98113358  0.37564551     0.10400
C2195       C  0.69726402  0.92161798  0.46507366     0.63300
H2196       H  0.70018135  0.86349750  0.42756450     0.07800
F2197       F  0.68408866  0.80063274  0.28934565    -0.19700
F2198       F  0.67020373  0.83224247  0.32082720    -0.15900
F2199       F  0.67334752  0.77240178  0.32872083    -0.19400
F2200       F  0.72799807  0.83848422  0.42078726    -0.22800
F2201       F  0.73756042  0.87225956  0.38350713    -0.24300
F2202       F  0.74306564  0.81270374  0.38771446    -0.18300
F2203       F  0.69528753  0.88618812  0.47549236    -0.20700
F2204       F  0.68445553  0.94069898  0.47003147    -0.21900
F2205       F  0.70847526  0.93729684  0.48119476    -0.19100
F2206       F  0.71491833  0.95835079  0.32792126    -0.19200
F2207       F  0.69968634  0.91092202  0.32238590    -0.23000
F2208       F  0.72360528  0.90117592  0.33143482    -0.24600
C2209       C  0.62796107  0.09171841  0.45220862    -0.11400
C2210       C  0.62554948  0.12273928  0.43425849     0.11200
C2211       C  0.63742354  0.13784726  0.41820087    -0.03200
C2212       C  0.65129186  0.12120437  0.42063825    -0.06000
C2213       C  0.65400287  0.09077469  0.43946809    -0.16700
C2214       C  0.64190975  0.07525404  0.45510523     0.02200
C2215       C  0.61056982  0.13953175  0.43391437     0.12100
C2216       C  0.63559977  0.17222016  0.39932176     0.62700
H2217       H  0.66035104  0.13326547  0.40859919     0.12200
C2218       C  0.64351381  0.04189606  0.47513453     0.54900
H2219       H  0.61874350  0.08093674  0.46460032     0.07900
C2220       C  0.59894461  0.12469038  0.41708729    -0.05900
C2221       C  0.58484359  0.14001478  0.41988892    -0.06600
C2222       C  0.58175580  0.16916702  0.43944009    -0.16200
C2223       C  0.59366231  0.18497773  0.45542314    -0.01800
C2224       C  0.60779326  0.16960926  0.45237670    -0.09300
C2225       C  0.60135835  0.09216224  0.39671981     0.65000
H2226       H  0.57591682  0.12810156  0.40745550     0.10400
C2227       C  0.59164578  0.21709739  0.47638157     0.63300
H2228       H  0.61683864  0.18028270  0.46522247     0.07800
F2229       F  0.63013119  0.02943753  0.48545800    -0.19700
F2230       F  0.65195846  0.05056106  0.49958101    -0.15900
F2231       F  0.64997719  0.01364592  0.45953699    -0.19400
F2232       F  0.63172292  0.20132454  0.41717817    -0.22800
F2233       F  0.62483538  0.16694456  0.37824218    -0.24300
F2234       F  0.64837756  0.18158230  0.38459268    -0.18300
F2235       F  0.58266274  0.20704160  0.49978103    -0.20700
F2236       F  0.58557616  0.24636273  0.46113066    -0.21900
F2237       F  0.60478878  0.22882035  0.48829020    -0.19100
F2238       F  0.58870589  0.08237324  0.38186312    -0.19200
F2239       F  0.60594653  0.06217873  0.41309451    -0.23000
F2240       F  0.61187790  0.10062564  0.37572295    -0.24600
C2241       C  0.73780024  0.19331730  0.27153068    -0.11400
C2242       C  0.74270877  0.18411168  0.30017004     0.11200
C2243       C  0.75661337  0.19719893  0.30952714    -0.03200
C2244       C  0.76500973  0.21919569  0.28994174    -0.06000
C2245       C  0.75977850  0.22979580  0.26187399    -0.16700
C2246       C  0.74589241  0.21665752  0.25245509     0.02200
C2247       C  0.73293128  0.16142887  0.32004630     0.12100
C2248       C  0.76236631  0.18913210  0.34048588     0.62700
H2249       H  0.77559328  0.22943002  0.29682743     0.12200
C2250       C  0.73956692  0.22713857  0.22238453     0.54900
H2251       H  0.72729757  0.18274992  0.26451777     0.07900
C2252       C  0.72084997  0.17664141  0.33537089    -0.05900
C2253       C  0.71311222  0.15463911  0.35612156    -0.06600
C2254       C  0.71736289  0.11836220  0.36304383    -0.16200
C2255       C  0.72793744  0.10173628  0.34407637    -0.01800
C2256       C  0.73567265  0.12378334  0.32331438    -0.09300
C2257       C  0.71643516  0.21634603  0.33046627     0.65000
H2258       H  0.70423116  0.16665823  0.36858004     0.10400
C2259       C  0.73103848  0.06095722  0.34503604     0.63300
H2260       H  0.74433235  0.11191336  0.31005293     0.07800
F2261       F  0.73609810  0.26399569  0.22211152    -0.19700
F2262       F  0.72695589  0.20769572  0.21607900    -0.15900
F2263       F  0.74959587  0.21999494  0.20016748    -0.19400
F2264       F  0.76347455  0.15177801  0.34493424    -0.22800
F2265       F  0.75295613  0.20363438  0.36126625    -0.24300
F2266       F  0.77604359  0.20432585  0.34508534    -0.18300
F2267       F  0.73826912  0.04954462  0.31966527    -0.20700
F2268       F  0.71802369  0.04172130  0.34668944    -0.21900
F2269       F  0.73968682  0.05254890  0.36930703    -0.19100
F2270       F  0.70518066  0.22671181  0.34919377    -0.19200
F2271       F  0.71174488  0.22121774  0.30152272    -0.23000
F2272       F  0.72820502  0.23923752  0.33563386    -0.24600
C2273       C  0.74290014  0.29365342  0.50347425    -0.11400
C2274       C  0.75271055  0.27094302  0.48816574     0.11200
C2275       C  0.76592592  0.28537826  0.47681501    -0.03200
C2276       C  0.76961825  0.32131684  0.48422328    -0.06000
C2277       C  0.76061158  0.34262042  0.50257052    -0.16700
C2278       C  0.74665049  0.32981132  0.51079073     0.02200
C2279       C  0.74794272  0.23358621  0.48105651     0.12100
C2280       C  0.77622868  0.26283066  0.45766462     0.62700
H2281       H  0.78014361  0.33231322  0.47757480     0.12200
C2282       C  0.73590575  0.35418169  0.52699085     0.54900
H2283       H  0.73237401  0.28257276  0.50997185     0.07900
C2284       C  0.74830115  0.20417221  0.50172371    -0.05900
C2285       C  0.74208111  0.17045152  0.49346151    -0.06600
C2286       C  0.73550097  0.16618485  0.46562676    -0.16200
C2287       C  0.73573318  0.19549607  0.44488962    -0.01800
C2288       C  0.74196147  0.22872164  0.45300801    -0.09300
C2289       C  0.75473434  0.20882129  0.53248689     0.65000
H2290       H  0.74161509  0.14789020  0.50914539     0.10400
C2291       C  0.72899773  0.19222956  0.41457146     0.63300
H2292       H  0.74166895  0.25194643  0.43791244     0.07800
F2293       F  0.72277764  0.33642500  0.53231301    -0.19700
F2294       F  0.73310427  0.38486350  0.50979569    -0.15900
F2295       F  0.74158043  0.36512932  0.55394804    -0.19400
F2296       F  0.76976735  0.25567750  0.43054017    -0.22800
F2297       F  0.77948512  0.23004321  0.47166374    -0.24300
F2298       F  0.78926238  0.28102881  0.45232419    -0.18300
F2299       F  0.71409703  0.18795115  0.41752406    -0.20700
F2300       F  0.73516376  0.16248937  0.40051352    -0.21900
F2301       F  0.73137256  0.22303265  0.39717022    -0.19100
F2302       F  0.75453169  0.17634579  0.54852588    -0.19200
F2303       F  0.74673673  0.23443413  0.54801349    -0.23000
F2304       F  0.76907128  0.22051774  0.53029061    -0.24600
C2305       C  0.54621984  0.91680736  0.87395801    -0.11400
C2306       C  0.53607799  0.88927208  0.86696264     0.11200
C2307       C  0.52543630  0.89560525  0.84474222    -0.03200
C2308       C  0.52590521  0.92868554  0.82880865    -0.06000
C2309       C  0.53628325  0.95588440  0.83508753    -0.16700
C2310       C  0.54643530  0.95045369  0.85845699     0.02200
C2311       C  0.53661065  0.85414108  0.88356528     0.12100
C2312       C  0.51330828  0.86817781  0.83860498     0.62700
H2313       H  0.51799471  0.93380500  0.81137969     0.12200
C2314       C  0.55698896  0.98041641  0.86770308     0.54900
H2315       H  0.55396145  0.91164559  0.89169334     0.07900
C2316       C  0.54649663  0.82588528  0.87598256    -0.05900
C2317       C  0.54600316  0.79282924  0.89213657    -0.06600
C2318       C  0.53561819  0.78686499  0.91461477    -0.16200
C2319       C  0.52557300  0.81514630  0.92186936    -0.01800
C2320       C  0.52650489  0.84866977  0.90650364    -0.09300
C2321       C  0.55723192  0.83036257  0.85047010     0.65000
H2322       H  0.55359873  0.77100095  0.88700114     0.10400
C2323       C  0.51422140  0.81071041  0.94624499     0.63300
H2324       H  0.51917125  0.87093784  0.91192766     0.07800
F2325       F  0.56710693  0.98658387  0.84540053    -0.19700
F2326       F  0.56451419  0.97112760  0.89335558    -0.15900
F2327       F  0.54937187  0.01243499  0.87310143    -0.19400
F2328       F  0.50387148  0.86695044  0.86260321    -0.22800
F2329       F  0.51906023  0.83365461  0.83404165    -0.24300
F2330       F  0.50528018  0.87768530  0.81365716    -0.18300
F2331       F  0.50614014  0.84233583  0.95040723    -0.20700
F2332       F  0.52112017  0.80247368  0.97272673    -0.21900
F2333       F  0.50455835  0.78305386  0.93897490    -0.19100
F2334       F  0.56565407  0.79927282  0.84649069    -0.19200
F2335       F  0.56655183  0.85934684  0.85597495    -0.23000
F2336       F  0.54968698  0.83705635  0.82437929    -0.24600
C2337       C  0.48479891  0.19983222  0.77128829    -0.11400
C2338       C  0.49010275  0.21943514  0.74675822     0.11200
C2339       C  0.49984663  0.20289810  0.72648503    -0.03200
C2340       C  0.50509180  0.16798772  0.73337298    -0.06000
C2341       C  0.50094856  0.14972978  0.75963932    -0.16700
C2342       C  0.48975042  0.16444687  0.77771845     0.02200
C2343       C  0.48498488  0.25704415  0.74322077     0.12100
C2344       C  0.50533391  0.22064183  0.69790382     0.62700
H2345       H  0.51330735  0.15584611  0.71905577     0.12200
C2346       C  0.48344987  0.14401062  0.80422662     0.54900
H2347       H  0.47697768  0.21302860  0.78582147     0.07900
C2348       C  0.47150135  0.26429587  0.72937885    -0.05900
C2349       C  0.46727493  0.30069015  0.72619908    -0.06600
C2350       C  0.47592270  0.32948643  0.73700390    -0.16200
C2351       C  0.48908980  0.32225809  0.75206730    -0.01800
C2352       C  0.49359443  0.28560172  0.75466928    -0.09300
C2353       C  0.46162404  0.23368692  0.71837760     0.65000
H2354       H  0.45700958  0.30699930  0.71541789     0.10400
C2355       C  0.49775361  0.35282106  0.76636228     0.63300
H2356       H  0.50373766  0.27884689  0.76583053     0.07800
F2357       F  0.47183786  0.16261773  0.81686481    -0.19700
F2358       F  0.49403205  0.13956739  0.82573753    -0.15900
F2359       F  0.47839532  0.11009401  0.79530839    -0.19400
F2360       F  0.52043409  0.22263590  0.69862982    -0.22800
F2361       F  0.49997449  0.25554535  0.69311940    -0.24300
F2362       F  0.50120722  0.19922607  0.67407010    -0.18300
F2363       F  0.50966881  0.33955042  0.78200052    -0.20700
F2364       F  0.48888316  0.37164253  0.78596600    -0.21900
F2365       F  0.50278304  0.37673601  0.74475438    -0.19100
F2366       F  0.44928508  0.24707137  0.70425234    -0.19200
F2367       F  0.45706130  0.21241284  0.74214557    -0.23000
F2368       F  0.46911282  0.21193586  0.69844592    -0.24600
C2369       C  0.50096793  0.12088898  0.91630321    -0.11400
C2370       C  0.50112585  0.15924762  0.91633115     0.11200
C2371       C  0.50937710  0.17825035  0.89461720    -0.03200
C2372       C  0.51685773  0.15802911  0.87283896    -0.06000
C2373       C  0.51602314  0.11945374  0.87129104    -0.16700
C2374       C  0.50803169  0.10042873  0.89391313     0.02200
C2375       C  0.49253637  0.17916797  0.93932437     0.12100
C2376       C  0.51001861  0.21988918  0.89417404     0.62700
H2377       H  0.52294026  0.17271713  0.85592214     0.12200
C2378       C  0.50643533  0.05898594  0.89441466     0.54900
H2379       H  0.49473509  0.10713128  0.93353730     0.07900
C2380       C  0.47758819  0.18778515  0.93547346    -0.05900
C2381       C  0.47072748  0.21099687  0.95621536    -0.06600
C2382       C  0.47811494  0.22441754  0.98145852    -0.16200
C2383       C  0.49284255  0.21257992  0.98653319    -0.01800
C2384       C  0.49976372  0.19068493  0.96498048    -0.09300
C2385       C  0.46891997  0.17188029  0.90979483     0.65000
H2386       H  0.45942652  0.21871147  0.95276216     0.10400
C2387       C  0.50145974  0.22236466  0.01433337     0.63300
H2388       H  0.51109623  0.18270938  0.96765334     0.07800
F2389       F  0.49787798  0.04791850  0.87076267    -0.19700
F2390       F  0.49977996  0.04661493  0.92024039    -0.15900
F2391       F  0.52004825  0.04264666  0.89276437    -0.19400
F2392       F  0.51645140  0.23233574  0.92001490    -0.22800
F2393       F  0.49606780  0.23421879  0.89202707    -0.24300
F2394       F  0.51806748  0.23312456  0.87036353    -0.18300
F2395       F  0.49383050  0.21127969  0.03938675    -0.20700
F2396       F  0.50392629  0.25972682  0.01516374    -0.21900
F2397       F  0.51495747  0.20523558  0.01520887    -0.19100
F2398       F  0.45459932  0.18411060  0.90962964    -0.19200
F2399       F  0.46870270  0.13410838  0.91223052    -0.23000
F2400       F  0.47525675  0.18156905  0.88298841    -0.24600
C2401       C  0.56611999  0.13707923  0.66091583    -0.11400
C2402       C  0.55403309  0.13495402  0.64171476     0.11200
C2403       C  0.54080198  0.11892105  0.65207505    -0.03200
C2404       C  0.54026706  0.10523041  0.68124051    -0.06000
C2405       C  0.55230604  0.10721496  0.70037486    -0.16700
C2406       C  0.56543975  0.12371140  0.69039110     0.02200
C2407       C  0.55571131  0.14850614  0.61072675     0.12100
C2408       C  0.52683058  0.11565626  0.63392088     0.62700
H2409       H  0.53019441  0.09298155  0.68933402     0.12200
C2410       C  0.57874309  0.12602999  0.71043904     0.54900
H2411       H  0.57611415  0.14927515  0.65253619     0.07900
C2412       C  0.55079087  0.18354815  0.60189669    -0.05900
C2413       C  0.54964028  0.19140825  0.57135996    -0.06600
C2414       C  0.55390059  0.16597005  0.54950522    -0.16200
C2415       C  0.56095576  0.13303793  0.55880709    -0.01800
C2416       C  0.56132402  0.12450272  0.58939352    -0.09300
C2417       C  0.54672548  0.21222940  0.62473707     0.65000
H2418       H  0.54495188  0.21729820  0.56446648     0.10400
C2419       C  0.56813547  0.10683696  0.53708957     0.63300
H2420       H  0.56554902  0.09832736  0.59688654     0.07800
F2421       F  0.59056306  0.14181949  0.69600969    -0.19700
F2422       F  0.58273536  0.09122759  0.71961815    -0.15900
F2423       F  0.57558233  0.14704681  0.73508521    -0.19400
F2424       F  0.52254493  0.07933321  0.63306681    -0.22800
F2425       F  0.52815902  0.12798607  0.60498292    -0.24300
F2426       F  0.51592292  0.13573813  0.64754360    -0.18300
F2427       F  0.57705476  0.12612221  0.51766413    -0.20700
F2428       F  0.55757914  0.08801920  0.52132458    -0.21900
F2429       F  0.57679747  0.08130068  0.55158813    -0.19100
F2430       F  0.54247063  0.24486027  0.61152593    -0.19200
F2431       F  0.55870570  0.21924214  0.64257631    -0.23000
F2432       F  0.53532637  0.19985137  0.64226554    -0.24600
C2433       C  0.49048697  0.95235903  0.70131195    -0.11400
C2434       C  0.49807292  0.94799673  0.67447334     0.11200
C2435       C  0.51186177  0.96528247  0.67083614    -0.03200
C2436       C  0.51812902  0.98365644  0.69519014    -0.06000
C2437       C  0.51069171  0.98742310  0.72229080    -0.16700
C2438       C  0.49641304  0.97234732  0.72522395     0.02200
C2439       C  0.49119860  0.92485478  0.65090438     0.12100
C2440       C  0.51957589  0.96609277  0.64101768     0.62700
H2441       H  0.52877422  0.99638524  0.69295425     0.12200
C2442       C  0.48751123  0.97653325  0.75350982     0.54900
H2443       H  0.47980503  0.93978836  0.70331431     0.07900
C2444       C  0.49346710  0.88657957  0.64972890    -0.05900
C2445       C  0.48662852  0.86621514  0.62702923    -0.06600
C2446       C  0.47697750  0.88234175  0.60619810    -0.16200
C2447       C  0.47380731  0.92049345  0.60919644    -0.01800
C2448       C  0.48123368  0.94101606  0.63114925    -0.09300
C2449       C  0.50272578  0.86722545  0.67307829     0.65000
H2450       H  0.48882967  0.83716730  0.62555861     0.10400
C2451       C  0.46245951  0.93982627  0.59009366     0.63300
H2452       H  0.47924756  0.97012052  0.63329695     0.07800
F2453       F  0.47461971  0.95666023  0.75249495    -0.19700
F2454       F  0.48387443  0.01292976  0.75750002    -0.15900
F2455       F  0.49550426  0.96419958  0.77764039    -0.19400
F2456       F  0.51079804  0.98397610  0.62068884    -0.22800
F2457       F  0.52230581  0.93094855  0.63125934    -0.24300
F2458       F  0.53277457  0.98465172  0.64231461    -0.18300
F2459       F  0.45992136  0.97530302  0.59950274    -0.20700
F2460       F  0.44932228  0.92113249  0.59172185    -0.21900
F2461       F  0.46714345  0.94162317  0.56090799    -0.19100
F2462       F  0.50382467  0.83002285  0.66777895    -0.19200
F2463       F  0.49645351  0.87179776  0.70078155    -0.23000
F2464       F  0.51669793  0.88162644  0.67348260    -0.24600
C2465       C  0.71775923  0.39449597  0.90071181    -0.11400
C2466       C  0.70887725  0.39359048  0.87542944     0.11200
C2467       C  0.70034583  0.42445630  0.86751500    -0.03200
C2468       C  0.70147862  0.45616832  0.88494663    -0.06000
C2469       C  0.71067940  0.45737306  0.90984480    -0.16700
C2470       C  0.71878129  0.42594421  0.91830960     0.02200
C2471       C  0.70820542  0.35886606  0.85885912     0.12100
C2472       C  0.69001844  0.42367455  0.84108589     0.62700
H2473       H  0.69509888  0.48026664  0.87944924     0.12200
C2474       C  0.72791496  0.42492504  0.94645945     0.54900
H2475       H  0.72378931  0.37000080  0.90667354     0.07900
C2476       C  0.71914319  0.34898886  0.83820931    -0.05900
C2477       C  0.71805334  0.31482608  0.82423196    -0.06600
C2478       C  0.70644501  0.29067660  0.83034457    -0.16200
C2479       C  0.69575375  0.30021443  0.85172256    -0.01800
C2480       C  0.69691532  0.33430952  0.86582975    -0.09300
C2481       C  0.73192571  0.37428612  0.83121276     0.65000
H2482       H  0.72622765  0.30681754  0.80810839     0.10400
C2483       C  0.68345301  0.27425425  0.86028278     0.63300
H2484       H  0.68896741  0.34226311  0.88243620     0.07800
F2485       F  0.73926196  0.44974771  0.94418733    -0.19700
F2486       F  0.73388046  0.39062846  0.95162117    -0.15900
F2487       F  0.71926913  0.43352756  0.97060941    -0.19400
F2488       F  0.67964279  0.39655414  0.84509898    -0.22800
F2489       F  0.69775593  0.41671518  0.81534710    -0.24300
F2490       F  0.68274643  0.45664085  0.83744070    -0.18300
F2491       F  0.67581614  0.28653417  0.88485437    -0.20700
F2492       F  0.68910158  0.24009913  0.86711289    -0.21900
F2493       F  0.67368661  0.27114377  0.83699048    -0.19100
F2494       F  0.74095901  0.35996241  0.80948738    -0.19200
F2495       F  0.74023257  0.37961970  0.85647890    -0.23000
F2496       F  0.72683960  0.40778358  0.82120643    -0.24600
C2497       C  0.67385569  0.16221142  0.64702760    -0.11400
C2498       C  0.68053363  0.13038875  0.63633715     0.11200
C2499       C  0.68756404  0.10617369  0.65653736    -0.03200
C2500       C  0.68805263  0.11548812  0.68689458    -0.06000
C2501       C  0.68227755  0.14868408  0.69722840    -0.16700
C2502       C  0.67455442  0.17182675  0.67722798     0.02200
C2503       C  0.68138310  0.12538784  0.60357037     0.12100
C2504       C  0.69519096  0.07168350  0.64586687     0.62700
H2505       H  0.69390950  0.09815348  0.70245505     0.12200
C2506       C  0.66746977  0.20724756  0.68724759     0.54900
H2507       H  0.66868397  0.18051701  0.63118734     0.07900
C2508       C  0.67006860  0.10874739  0.58693940    -0.05900
C2509       C  0.67236339  0.10241256  0.55636247    -0.06600
C2510       C  0.68519996  0.11405773  0.54196737    -0.16200
C2511       C  0.69591000  0.13347129  0.55818683    -0.01800
C2512       C  0.69385114  0.13866159  0.58887056    -0.09300
C2513       C  0.65565681  0.09819657  0.60141383     0.65000
H2514       H  0.66427425  0.08773466  0.54355630     0.10400
C2515       C  0.70960413  0.14776782  0.54312225     0.63300
H2516       H  0.70211731  0.15253445  0.60185667     0.07800
F2517       F  0.65725302  0.21954929  0.66681048    -0.19700
F2518       F  0.67803579  0.23402936  0.69044269    -0.15900
F2519       F  0.66033419  0.20202978  0.71402950    -0.19400
F2520       F  0.70672568  0.08099879  0.62746011    -0.22800
F2521       F  0.68550801  0.04994423  0.63032891    -0.24300
F2522       F  0.70067600  0.05113530  0.66930042    -0.18300
F2523       F  0.71873621  0.16570366  0.56279981    -0.20700
F2524       F  0.70572068  0.17228187  0.52096982    -0.21900
F2525       F  0.71728525  0.11894333  0.53085793    -0.19100
F2526       F  0.64627453  0.08151100  0.58149482    -0.19200
F2527       F  0.64884835  0.12927673  0.61206928    -0.23000
F2528       F  0.65801802  0.07423000  0.62479414    -0.24600
C2529       C  0.60033324  0.13819360  0.82466638    -0.11400
C2530       C  0.61146484  0.11834643  0.81092065     0.11200
C2531       C  0.60838427  0.08333444  0.79920487    -0.03200
C2532       C  0.59371978  0.07150404  0.79805204    -0.06000
C2533       C  0.58219144  0.09263620  0.80975125    -0.16700
C2534       C  0.58575916  0.12570403  0.82511996     0.02200
C2535       C  0.62623778  0.13526465  0.80907082     0.12100
C2536       C  0.62059714  0.05835756  0.78869428     0.62700
H2537       H  0.59116866  0.04566973  0.78756455     0.12200
C2538       C  0.57451483  0.14861722  0.84163067     0.54900
H2539       H  0.60317579  0.16426616  0.83448725     0.07900
C2540       C  0.63052347  0.15708527  0.78445665    -0.05900
C2541       C  0.64488992  0.17092339  0.78355182    -0.06600
C2542       C  0.65506471  0.16357878  0.80626059    -0.16200
C2543       C  0.65033952  0.14388174  0.83192702    -0.01800
C2544       C  0.63594407  0.13008713  0.83278662    -0.09300
C2545       C  0.61996030  0.16567239  0.75925073     0.65000
H2546       H  0.64845954  0.18636511  0.76429768     0.10400
C2547       C  0.66033524  0.13684483  0.85828540     0.63300
H2548       H  0.63225287  0.11409354  0.85171458     0.07800
F2549       F  0.56508378  0.16509526  0.82163671    -0.19700
F2550       F  0.58099776  0.17615324  0.85809005    -0.15900
F2551       F  0.56675868  0.12672277  0.86128424    -0.19400
F2552       F  0.62974405  0.05046216  0.81233153    -0.22800
F2553       F  0.62865941  0.07508983  0.76647089    -0.24300
F2554       F  0.61525374  0.02561826  0.77773206    -0.18300
F2555       F  0.65250554  0.12610156  0.88320787    -0.20700
F2556       F  0.66791007  0.16842563  0.86539339    -0.21900
F2557       F  0.67011588  0.10924293  0.85155937    -0.19100
F2558       F  0.62654603  0.18601794  0.73688708    -0.19200
F2559       F  0.60828107  0.18555210  0.77009330    -0.23000
F2560       F  0.61476116  0.13371880  0.74677199    -0.24600
C2561       C  0.73660593  0.30798206  0.69005257    -0.11400
C2562       C  0.74932001  0.29120140  0.67935872     0.11200
C2563       C  0.75308827  0.25584361  0.68977844    -0.03200
C2564       C  0.74364685  0.23790532  0.70995507    -0.06000
C2565       C  0.73077722  0.25446177  0.72079908    -0.16700
C2566       C  0.72723064  0.29051230  0.71065366     0.02200
C2567       C  0.75827890  0.31153288  0.65690102     0.12100
C2568       C  0.76727832  0.23767727  0.68038935     0.62700
H2569       H  0.74645396  0.21074146  0.71780765     0.12200
C2570       C  0.71389403  0.31129094  0.72168204     0.54900
H2571       H  0.73408880  0.33521196  0.68189453     0.07900
C2572       C  0.75455172  0.31152996  0.62636892    -0.05900
C2573       C  0.76282784  0.33315815  0.60658659    -0.06600
C2574       C  0.77420432  0.35605290  0.61627615    -0.16200
C2575       C  0.77817210  0.35545954  0.64667406    -0.01800
C2576       C  0.77011062  0.33304323  0.66657352    -0.09300
C2577       C  0.74154378  0.28986039  0.61485340     0.65000
H2578       H  0.76022996  0.33309407  0.58314061     0.10400
C2579       C  0.79055667  0.37894028  0.65804640     0.63300
H2580       H  0.77273028  0.33281944  0.69004790     0.07800
F2581       F  0.70126307  0.29343765  0.71303414    -0.19700
F2582       F  0.71328855  0.34656585  0.71029047    -0.15900
F2583       F  0.71432679  0.31392931  0.75231975    -0.19400
F2584       F  0.77895835  0.25792670  0.69080320    -0.22800
F2585       F  0.76811861  0.23573973  0.64976942    -0.24300
F2586       F  0.76848345  0.20243459  0.69165482    -0.18300
F2587       F  0.79244394  0.37510414  0.68843640    -0.20700
F2588       F  0.78770572  0.41530912  0.65190290    -0.21900
F2589       F  0.80340295  0.36888182  0.64425341    -0.19100
F2590       F  0.74027543  0.29241086  0.58427077    -0.19200
F2591       F  0.72878621  0.30321716  0.62717448    -0.23000
F2592       F  0.74297303  0.25326383  0.62228503    -0.24600
C2593       C  0.20048545  0.34639604  0.31977033    -0.11400
C2594       C  0.20715004  0.34823310  0.34760976     0.11200
C2595       C  0.21293287  0.31630786  0.36107792    -0.03200
C2596       C  0.21234722  0.28326614  0.34524313    -0.06000
C2597       C  0.20569352  0.28131890  0.31719980    -0.16700
C2598       C  0.19968053  0.31349444  0.30401791     0.02200
C2599       C  0.20673583  0.38381030  0.36285594     0.12100
C2600       C  0.21930994  0.31704349  0.39222747     0.62700
H2601       H  0.21685117  0.25845933  0.35486149     0.12200
C2602       C  0.19298723  0.31402072  0.27306707     0.54900
H2603       H  0.19587436  0.37130085  0.31052880     0.07900
C2604       C  0.21716291  0.41156099  0.35737823    -0.05900
C2605       C  0.21574511  0.44488646  0.37251587    -0.06600
C2606       C  0.20393534  0.45167035  0.39176729    -0.16200
C2607       C  0.19286771  0.42434999  0.39539704    -0.01800
C2608       C  0.19469202  0.39069077  0.38101031    -0.09300
C2609       C  0.22951571  0.40618927  0.33524095     0.65000
H2610       H  0.22389133  0.46608226  0.36927885     0.10400
C2611       C  0.17919995  0.42968031  0.41425155     0.63300
H2612       H  0.18662776  0.36914602  0.38357564     0.07800
F2613       F  0.18904498  0.34903213  0.26418699    -0.19700
F2614       F  0.18051644  0.29264541  0.27247314    -0.15900
F2615       F  0.20301908  0.30111833  0.25272054    -0.19400
F2616       F  0.20854147  0.32649757  0.41233797    -0.22800
F2617       F  0.23050211  0.34239272  0.39375558    -0.24300
F2618       F  0.22488358  0.28326412  0.40055532    -0.18300
F2619       F  0.17021359  0.39912989  0.41410030    -0.20700
F2620       F  0.17113200  0.45877050  0.40324258    -0.21900
F2621       F  0.18300792  0.43610309  0.44344790    -0.19100
F2622       F  0.23872802  0.43626830  0.33403172    -0.19200
F2623       F  0.22378224  0.40093773  0.30716182    -0.23000
F2624       F  0.23777033  0.37595945  0.34304175    -0.24600
C2625       C  0.23657880  0.41208428  0.52231160    -0.11400
C2626       C  0.24468100  0.42902624  0.54493590     0.11200
C2627       C  0.24518444  0.46791477  0.54583844    -0.03200
C2628       C  0.23801123  0.48820483  0.52345978    -0.06000
C2629       C  0.22941289  0.47144706  0.50153106    -0.16700
C2630       C  0.22861963  0.43253806  0.50098648     0.02200
C2631       C  0.25207048  0.40518577  0.56759451     0.12100
C2632       C  0.25246753  0.48980579  0.57034847     0.62700
H2633       H  0.23868334  0.51784617  0.52389668     0.12200
C2634       C  0.21958552  0.41250265  0.47788432     0.54900
H2635       H  0.23625195  0.38243998  0.52198884     0.07900
C2636       C  0.24434681  0.39043083  0.59222401    -0.05900
C2637       C  0.25207318  0.36983342  0.61367871    -0.06600
C2638       C  0.26726322  0.36446510  0.61180331    -0.16200
C2639       C  0.27502467  0.37954250  0.58751760    -0.01800
C2640       C  0.26724198  0.39907373  0.56533381    -0.09300
C2641       C  0.22805348  0.39705331  0.59607001     0.65000
H2642       H  0.24633517  0.35851054  0.63267958     0.10400
C2643       C  0.29147067  0.37558765  0.58568428     0.63300
H2644       H  0.27302388  0.41101016  0.54664657     0.07800
F2645       F  0.20491320  0.41926733  0.48262075    -0.19700
F2646       F  0.22163597  0.37496734  0.47930366    -0.15900
F2647       F  0.22346731  0.42419821  0.44966851    -0.19400
F2648       F  0.26301937  0.51241175  0.55805702    -0.22800
F2649       F  0.25902158  0.46840360  0.59191779    -0.24300
F2650       F  0.24203759  0.51129841  0.58410942    -0.18300
F2651       F  0.29688373  0.38839921  0.55884876    -0.20700
F2652       F  0.29531688  0.33910232  0.58861124    -0.21900
F2653       F  0.29788498  0.39535369  0.60835337    -0.19100
F2654       F  0.22298861  0.38391361  0.62310530    -0.19200
F2655       F  0.22044849  0.37955287  0.57371156    -0.23000
F2656       F  0.22509800  0.43418607  0.59480560    -0.24600
C2657       C  0.23374173  0.63442166  0.31879228    -0.11400
C2658       C  0.23625379  0.67170867  0.32444944     0.11200
C2659       C  0.23029529  0.68732885  0.35053134    -0.03200
C2660       C  0.22305260  0.66439354  0.37122206    -0.06000
C2661       C  0.22127823  0.62643361  0.36662308    -0.16700
C2662       C  0.22625484  0.61146273  0.33923743     0.02200
C2663       C  0.24518796  0.69372866  0.30270753     0.12100
C2664       C  0.23171666  0.72809313  0.35660196     0.62700
H2665       H  0.21910566  0.67601750  0.39180496     0.12200
C2666       C  0.22355941  0.57169003  0.33114687     0.54900
H2667       H  0.23800343  0.62320406  0.29830162     0.07900
C2668       C  0.26067537  0.69374388  0.30321575    -0.05900
C2669       C  0.26839681  0.71503138  0.28206534    -0.06600
C2670       C  0.26125175  0.73680106  0.26052843    -0.16200
C2671       C  0.24562288  0.73726191  0.26055663    -0.01800
C2672       C  0.23796568  0.71516688  0.28134129    -0.09300
C2673       C  0.26902242  0.67102965  0.32593549     0.65000
H2674       H  0.28023433  0.71469837  0.28224114     0.10400
C2675       C  0.23686027  0.76048010  0.23881187     0.63300
H2676       H  0.22612591  0.71459978  0.28132019     0.07800
F2677       F  0.23234930  0.54904065  0.34816507    -0.19700
F2678       F  0.22666707  0.56504277  0.30153882    -0.15900
F2679       F  0.20902206  0.56289631  0.33591755    -0.19400
F2680       F  0.22488971  0.74782118  0.33428117    -0.22800
F2681       F  0.24629205  0.73799732  0.35766402    -0.24300
F2682       F  0.22532088  0.73771567  0.38332752    -0.18300
F2683       F  0.24040031  0.75110989  0.20994920    -0.20700
F2684       F  0.23980944  0.79718254  0.24342459    -0.21900
F2685       F  0.22194190  0.75555357  0.24227246    -0.19100
F2686       F  0.28395573  0.67685983  0.32412222    -0.19200
F2687       F  0.26638337  0.63423853  0.32123385    -0.23000
F2688       F  0.26459480  0.67999225  0.35434512    -0.24600
C2689       C  0.23584471  0.69976096  0.50683205    -0.11400
C2690       C  0.24486466  0.71673488  0.48582275     0.11200
C2691       C  0.25050864  0.69647728  0.46164600    -0.03200
C2692       C  0.24516637  0.66091127  0.45703630    -0.06000
C2693       C  0.23527028  0.64486906  0.47705791    -0.16700
C2694       C  0.23153922  0.66337510  0.50358988     0.02200
C2695       C  0.25052842  0.75304990  0.49343984     0.12100
C2696       C  0.26212629  0.71226837  0.44111638     0.62700
H2697       H  0.24810188  0.64619805  0.43706993     0.12200
C2698       C  0.22289791  0.64564774  0.52856973     0.54900
H2699       H  0.23256675  0.71480674  0.52645545     0.07900
C2700       C  0.24324752  0.78619874  0.48658747    -0.05900
C2701       C  0.25004448  0.81946839  0.49437611    -0.06600
C2702       C  0.26323119  0.81954206  0.51030108    -0.16200
C2703       C  0.26921434  0.78569014  0.52065888    -0.01800
C2704       C  0.26299111  0.75316714  0.51096503    -0.09300
C2705       C  0.22839105  0.78605614  0.47170983     0.65000
H2706       H  0.24528791  0.84539790  0.48772130     0.10400
C2707       C  0.28144782  0.78296896  0.54341825     0.63300
H2708       H  0.26772844  0.72705834  0.51730985     0.07800
F2709       F  0.20835725  0.65565566  0.52643172    -0.19700
F2710       F  0.22825843  0.65687045  0.55582077    -0.15900
F2711       F  0.22403202  0.60795456  0.52766440    -0.19400
F2712       F  0.27472953  0.71922603  0.45709020    -0.22800
F2713       F  0.25722406  0.74454728  0.42842974    -0.24300
F2714       F  0.26566167  0.68830893  0.41848671    -0.18300
F2715       F  0.28302651  0.74772442  0.55451943    -0.20700
F2716       F  0.27818390  0.80508566  0.56720520    -0.21900
F2717       F  0.29466430  0.79283898  0.53095040    -0.19100
F2718       F  0.22307875  0.82119580  0.46749504    -0.19200
F2719       F  0.21852834  0.76711289  0.48933477    -0.23000
F2720       F  0.22931021  0.76919327  0.44435697    -0.24600
C2721       C  0.04816631  0.82839599  0.37185594    -0.11400
C2722       C  0.03960046  0.85789362  0.38148774     0.11200
C2723       C  0.03027500  0.85354113  0.40643605    -0.03200
C2724       C  0.02969169  0.81921799  0.42065513    -0.06000
C2725       C  0.03837709  0.78989393  0.41120249    -0.16700
C2726       C  0.04801040  0.79451848  0.38685882     0.02200
C2727       C  0.03939790  0.89166732  0.36306960     0.12100
C2728       C  0.02105704  0.88500308  0.41808266     0.62700
H2729       H  0.02252734  0.81503226  0.43957029     0.12200
C2730       C  0.05788217  0.76370072  0.37656215     0.54900
H2731       H  0.05494603  0.83214097  0.35232825     0.07900
C2732       C  0.05075470  0.91804301  0.36344011    -0.05900
C2733       C  0.04935540  0.94955017  0.34541434    -0.06600
C2734       C  0.03706061  0.95503101  0.32721246    -0.16200
C2735       C  0.02600954  0.92761536  0.32605815    -0.01800
C2736       C  0.02748849  0.89635755  0.34400795    -0.09300
C2737       C  0.06424910  0.91281287  0.38262689     0.65000
H2738       H  0.05783400  0.97027741  0.34547997     0.10400
C2739       C  0.01302378  0.93006418  0.30503595     0.63300
H2740       H  0.01924724  0.87503867  0.34348555     0.07800
F2741       F  0.06850172  0.75706098  0.39777756    -0.19700
F2742       F  0.06481576  0.77220324  0.35004948    -0.15900
F2743       F  0.04976781  0.73221574  0.37232823    -0.19400
F2744       F  0.01068064  0.89502626  0.39727438    -0.22800
F2745       F  0.02990855  0.91478307  0.42403244    -0.24300
F2746       F  0.01380088  0.87560348  0.44405051    -0.18300
F2747       F  0.00477265  0.89825565  0.30513768    -0.20700
F2748       F  0.01798128  0.93566606  0.27637801    -0.21900
F2749       F  0.00389763  0.95842520  0.31326290    -0.19100
F2750       F  0.07352314  0.94275076  0.38105559    -0.19200
F2751       F  0.07193610  0.88242271  0.37322966    -0.23000
F2752       F  0.06020612  0.90787863  0.41198574    -0.24600
C2753       C  0.10202704  0.61502237  0.41025672    -0.11400
C2754       C  0.11311804  0.62959813  0.42787060     0.11200
C2755       C  0.11036074  0.66091594  0.44530350    -0.03200
C2756       C  0.09584887  0.67331796  0.44796938    -0.06000
C2757       C  0.08429126  0.65651641  0.43244093    -0.16700
C2758       C  0.08767948  0.62854626  0.41141749     0.02200
C2759       C  0.12753333  0.61127151  0.42734167     0.12100
C2760       C  0.12275337  0.68143124  0.46033800     0.62700
H2761       H  0.09342875  0.69567875  0.46287797     0.12200
C2762       C  0.07646481  0.61210855  0.39037283     0.54900
H2763       H  0.10466503  0.59204632  0.39608759     0.07900
C2764       C  0.13122939  0.58355226  0.44810141    -0.05900
C2765       C  0.14545935  0.56907331  0.44747118    -0.06600
C2766       C  0.15579788  0.58052697  0.42615984    -0.16200
C2767       C  0.15133487  0.60480736  0.40311353    -0.01800
C2768       C  0.13730830  0.62041468  0.40454376    -0.09300
C2769       C  0.12017813  0.56928253  0.47066364     0.65000
H2770       H  0.14876880  0.54977226  0.46453555     0.10400
C2771       C  0.16116377  0.61460060  0.37708494     0.63300
H2772       H  0.13393561  0.64043467  0.38805096     0.07800
F2773       F  0.06741665  0.58819375  0.40567799    -0.19700
F2774       F  0.08307958  0.59271621  0.36767472    -0.15900
F2775       F  0.06827113  0.63963706  0.37727630    -0.19400
F2776       F  0.13253191  0.69355429  0.43898988    -0.22800
F2777       F  0.13003316  0.65884689  0.48011645    -0.24300
F2778       F  0.11774096  0.71162043  0.47578542    -0.18300
F2779       F  0.15308966  0.62734372  0.35314018    -0.20700
F2780       F  0.16880973  0.58406003  0.36771885    -0.21900
F2781       F  0.17088172  0.64170599  0.38536550    -0.19100
F2782       F  0.12593660  0.54145835  0.48810573    -0.19200
F2783       F  0.10809890  0.55552305  0.45600263    -0.23000
F2784       F  0.11572926  0.59711258  0.48926950    -0.24600
C2785       C  0.01323378  0.61421754  0.31996741    -0.11400
C2786       C  0.00531913  0.58196227  0.32626752     0.11200
C2787       C  0.00432864  0.56966478  0.35611441    -0.03200
C2788       C  0.01122004  0.59012818  0.37859193    -0.06000
C2789       C  0.01903313  0.62253907  0.37258519    -0.16700
C2790       C  0.02000790  0.63499905  0.34273373     0.02200
C2791       C  0.99847968  0.56065990  0.30139544     0.12100
C2792       C  0.99592235  0.53506040  0.36431745     0.62700
H2793       H  0.01031564  0.58122534  0.40128703     0.12200
C2794       C  0.02854172  0.66928167  0.33490157     0.54900
H2795       H  0.01405295  0.62296979  0.29702760     0.07900
C2796       C  0.98449272  0.56912664  0.28985149    -0.05900
C2797       C  0.97801181  0.54508414  0.26915141    -0.06600
C2798       C  0.98500347  0.51284737  0.25924146    -0.16200
C2799       C  0.99946223  0.50559432  0.26983001    -0.01800
C2800       C  0.00587537  0.52986161  0.29053721    -0.09300
C2801       C  0.97640526  0.60339755  0.29952789     0.65000
H2802       H  0.96719835  0.55132086  0.26082803     0.10400
C2803       C  0.00821823  0.47239664  0.26001472     0.63300
H2804       H  0.01667549  0.52438225  0.29933883     0.07800
F2805       F  0.02202446  0.69945019  0.34776784    -0.19700
F2806       F  0.02910788  0.67518185  0.30450110    -0.15900
F2807       F  0.04271013  0.66595046  0.34524463    -0.19400
F2808       F  0.98154881  0.53809963  0.35518512    -0.22800
F2809       F  0.99591231  0.52867185  0.39466301    -0.24300
F2810       F  0.00218935  0.50505584  0.35074574    -0.18300
F2811       F  0.01000653  0.47309614  0.22948342    -0.20700
F2812       F  0.00107154  0.44062179  0.26851938    -0.21900
F2813       F  0.02202212  0.47160585  0.27263324    -0.19100
F2814       F  0.96299166  0.60681605  0.28553600    -0.19200
F2815       F  0.98462693  0.63404530  0.29256395    -0.23000
F2816       F  0.97399565  0.60246028  0.32984649    -0.24600
C2817       C  0.98974211  0.53500565  0.47738359    -0.11400
C2818       C  0.99969852  0.50752206  0.46917834     0.11200
C2819       C  0.01310593  0.51655922  0.45576613    -0.03200
C2820       C  0.01707508  0.55329144  0.45494509    -0.06000
C2821       C  0.00777458  0.58100507  0.46558351    -0.16700
C2822       C  0.99353679  0.57227379  0.47514814     0.02200
C2823       C  0.99644697  0.46950154  0.47698418     0.12100
C2824       C  0.02320753  0.48755749  0.44281479     0.62700
H2825       H  0.02770955  0.56054511  0.44626918     0.12200
C2826       C  0.98278967  0.60187468  0.48369139     0.54900
H2827       H  0.97926967  0.52694889  0.48658036     0.07900
C2828       C  0.00102258  0.45445973  0.50450743    -0.05900
C2829       C  0.99734815  0.41805986  0.51088859    -0.06600
C2830       C  0.98861415  0.39785580  0.49137198    -0.16200
C2831       C  0.98498767  0.41212259  0.46301083    -0.01800
C2832       C  0.98891494  0.44818609  0.45633137    -0.09300
C2833       C  0.00858258  0.47761534  0.52799799     0.65000
H2834       H  0.99969799  0.40672990  0.53269233     0.10400
C2835       C  0.97622895  0.39108967  0.44007301     0.63300
H2836       H  0.98577325  0.46015254  0.43515300     0.07800
F2837       F  0.98843318  0.62242260  0.50673037    -0.19700
F2838       F  0.96952485  0.58728814  0.49270891    -0.15900
F2839       F  0.98027025  0.62446363  0.45945384    -0.19400
F2840       F  0.01594518  0.46866137  0.42073854    -0.22800
F2841       F  0.02754577  0.46304184  0.46459011    -0.24300
F2842       F  0.03567151  0.50285373  0.43041386    -0.18300
F2843       F  0.98303208  0.39377372  0.41268048    -0.20700
F2844       F  0.96238818  0.40608941  0.43790651    -0.21900
F2845       F  0.97498200  0.35425210  0.44705026    -0.19100
F2846       F  0.01258536  0.45694498  0.55256919    -0.19200
F2847       F  0.99918895  0.50486517  0.53737661    -0.23000
F2848       F  0.02109648  0.49362234  0.51662577    -0.24600
C2849       C  0.20147043  0.87897990  0.89664994    -0.11400
C2850       C  0.21063872  0.87552737  0.87192269     0.11200
C2851       C  0.21813374  0.90641198  0.86055444    -0.03200
C2852       C  0.21707772  0.93951413  0.87606822    -0.06000
C2853       C  0.20806086  0.94310441  0.90120182    -0.16700
C2854       C  0.19977372  0.91253171  0.91136049     0.02200
C2855       C  0.21029461  0.84050214  0.85585411     0.12100
C2856       C  0.22666837  0.90479917  0.83156516     0.62700
H2857       H  0.22312904  0.96323514  0.86832646     0.12200
C2858       C  0.18924783  0.91473255  0.93747677     0.54900
H2859       H  0.19536865  0.85508312  0.90385198     0.07900
C2860       C  0.21990795  0.81123923  0.86221124    -0.05900
C2861       C  0.21891166  0.77937867  0.84491355    -0.06600
C2862       C  0.20806522  0.77538492  0.82302663    -0.16200
C2863       C  0.19761547  0.80399226  0.81861133    -0.01800
C2864       C  0.19920679  0.83628810  0.83490658    -0.09300
C2865       C  0.23081700  0.81335325  0.88758032     0.65000
H2866       H  0.22651862  0.75709103  0.84861272     0.10400
C2867       C  0.18484065  0.80148772  0.79693423     0.63300
H2868       H  0.19170062  0.85890104  0.83163190     0.07800
F2869       F  0.19651266  0.92611148  0.96270920    -0.19700
F2870       F  0.18288392  0.88115772  0.94382676    -0.15900
F2871       F  0.17812924  0.93908731  0.93087693    -0.19400
F2872       F  0.21729415  0.89640181  0.80848674    -0.22800
F2873       F  0.23740926  0.87830828  0.83320742    -0.24300
F2874       F  0.23334598  0.93790530  0.82494385    -0.18300
F2875       F  0.17553920  0.77345860  0.80549352    -0.20700
F2876       F  0.18989199  0.79539697  0.76846406    -0.21900
F2877       F  0.17666067  0.83338740  0.79609947    -0.19100
F2878       F  0.23868830  0.78117351  0.89067378    -0.19200
F2879       F  0.22348072  0.81955050  0.91395168    -0.23000
F2880       F  0.24059697  0.84158820  0.88272856    -0.24600
C2881       C  0.19014809  0.64792119  0.62800381    -0.11400
C2882       C  0.17984710  0.62023299  0.62369028     0.11200
C2883       C  0.17184468  0.60607244  0.64799120    -0.03200
C2884       C  0.17477637  0.61977372  0.67654808    -0.06000
C2885       C  0.18555774  0.64665946  0.68122304    -0.16700
C2886       C  0.19334197  0.66126339  0.65639999     0.02200
C2887       C  0.17912107  0.60425611  0.59370065     0.12100
C2888       C  0.16046087  0.57638653  0.64355733     0.62700
H2889       H  0.16891202  0.60887024  0.69556273     0.12200
C2890       C  0.20572576  0.68872354  0.65969724     0.54900
H2891       H  0.19613213  0.65790250  0.60879549     0.07900
C2892       C  0.17196339  0.62175471  0.56966170    -0.05900
C2893       C  0.17466262  0.60916309  0.54076824    -0.06600
C2894       C  0.18430312  0.58001748  0.53519473    -0.16200
C2895       C  0.19120901  0.56193881  0.55958801    -0.01800
C2896       C  0.18834946  0.57446309  0.58842815    -0.09300
C2897       C  0.16178269  0.65429951  0.57299127     0.65000
H2898       H  0.16936659  0.62289187  0.52224902     0.10400
C2899       C  0.20223447  0.53112266  0.55562281     0.63300
H2900       H  0.19390314  0.56221763  0.60728649     0.07800
F2901       F  0.21278588  0.69564154  0.63301129    -0.19700
F2902       F  0.21594996  0.67487559  0.67938466    -0.15900
F2903       F  0.20035709  0.72173945  0.66994164    -0.19400
F2904       F  0.16715847  0.54463188  0.63396812    -0.22800
F2905       F  0.15040572  0.58762529  0.62244712    -0.24300
F2906       F  0.15297667  0.56856707  0.66958121    -0.18300
F2907       F  0.21318946  0.54229639  0.53652843    -0.20700
F2908       F  0.19537560  0.50047344  0.54428721    -0.21900
F2909       F  0.20878245  0.52104709  0.58217686    -0.19100
F2910       F  0.14855027  0.64642928  0.55956994    -0.19200
F2911       F  0.16791818  0.68443872  0.55900803    -0.23000
F2912       F  0.15899903  0.66326383  0.60225555    -0.24600
C2913       C  0.25106584  0.53027683  0.73153603    -0.11400
C2914       C  0.24288322  0.51392790  0.70879311     0.11200
C2915       C  0.23203109  0.53404169  0.69362440    -0.03200
C2916       C  0.22894652  0.56933562  0.70359773    -0.06000
C2917       C  0.23592240  0.58433838  0.72871210    -0.16700
C2918       C  0.24784159  0.56559016  0.74179299     0.02200
C2919       C  0.24562109  0.47507605  0.70310172     0.12100
C2920       C  0.22268578  0.51899444  0.66852038     0.62700
H2921       H  0.22004072  0.58420872  0.69312319     0.12200
C2922       C  0.25669699  0.58171572  0.76708191     0.54900
H2923       H  0.25958544  0.51427570  0.74214766     0.07900
C2924       C  0.25701541  0.46440976  0.68404313    -0.05900
C2925       C  0.26070399  0.42750046  0.68328878    -0.06600
C2926       C  0.25373378  0.40135852  0.70137375    -0.16200
C2927       C  0.24167633  0.41151792  0.71894772    -0.01800
C2928       C  0.23769811  0.44875220  0.71944395    -0.09300
C2929       C  0.26558823  0.49213356  0.66562656     0.65000
H2930       H  0.26996271  0.41927815  0.66966974     0.10400
C2931       C  0.23355830  0.38345806  0.73754389     0.63300
H2932       H  0.22886217  0.45793687  0.73371502     0.07800
F2933       F  0.26829133  0.55935488  0.77502339    -0.19700
F2934       F  0.24801098  0.58627895  0.79191377    -0.15900
F2935       F  0.26233811  0.61524604  0.75836396    -0.19400
F2936       F  0.20855148  0.51401501  0.67870722    -0.22800
F2937       F  0.22768206  0.48600992  0.65754008    -0.24300
F2938       F  0.22244983  0.54388632  0.64521593    -0.18300
F2939       F  0.22197485  0.39899429  0.75275834    -0.20700
F2940       F  0.24295419  0.36787869  0.75806229    -0.21900
F2941       F  0.22810651  0.35633412  0.71928208    -0.19100
F2942       F  0.27611728  0.47551291  0.64816049    -0.19200
F2943       F  0.27257900  0.51667823  0.68410206    -0.23000
F2944       F  0.25620675  0.51110864  0.64706009    -0.24600
C2945       C  0.26327773  0.55010232  0.92032761    -0.11400
C2946       C  0.24794260  0.54918870  0.92021918     0.11200
C2947       C  0.24060985  0.52825950  0.94227182    -0.03200
C2948       C  0.24893926  0.50745018  0.96266547    -0.06000
C2949       C  0.26434824  0.50801099  0.96280116    -0.16700
C2950       C  0.27165392  0.53128723  0.94195607     0.02200
C2951       C  0.23990433  0.56927332  0.89603437     0.12100
C2952       C  0.22403149  0.52824426  0.94454935     0.62700
H2953       H  0.24336227  0.49058716  0.97898405     0.12200
C2954       C  0.28813639  0.53671405  0.94214217     0.54900
H2955       H  0.26867287  0.56591643  0.90310056     0.07900
C2956       C  0.23897933  0.60799592  0.89472895    -0.05900
C2957       C  0.23171658  0.62461755  0.87046891    -0.06600
C2958       C  0.22506441  0.60410218  0.84766191    -0.16200
C2959       C  0.22539250  0.56506002  0.84996079    -0.01800
C2960       C  0.23322204  0.54865797  0.87360751    -0.09300
C2961       C  0.24562576  0.63181540  0.91881721     0.65000
H2962       H  0.23137327  0.65420511  0.86901264     0.10400
C2963       C  0.21763052  0.54022364  0.82795688     0.63300
H2964       H  0.23426336  0.51915133  0.87483106     0.07800
F2965       F  0.29241181  0.55197282  0.96883713    -0.19700
F2966       F  0.29273854  0.56005964  0.91965143    -0.15900
F2967       F  0.29511631  0.50361179  0.93824621    -0.19400
F2968       F  0.21800366  0.51109974  0.92015867    -0.22800
F2969       F  0.21894330  0.56386380  0.94581956    -0.24300
F2970       F  0.21921713  0.51002755  0.96978849    -0.18300
F2971       F  0.22345998  0.54470803  0.79982531    -0.20700
F2972       F  0.20287481  0.54837398  0.82749146    -0.21900
F2973       F  0.21895753  0.50357557  0.83559245    -0.19100
F2974       F  0.24202771  0.66838400  0.91505003    -0.19200
F2975       F  0.26068484  0.62904332  0.91824846    -0.23000
F2976       F  0.24056593  0.62074177  0.94640000    -0.24600
C2977       C  0.24567855  0.81601559  0.70162163    -0.11400
C2978       C  0.25080813  0.80235581  0.67436002     0.11200
C2979       C  0.24778266  0.76535096  0.66706484    -0.03200
C2980       C  0.23914230  0.74392954  0.68659533    -0.06000
C2981       C  0.23329199  0.75810568  0.71302855    -0.16700
C2982       C  0.23712516  0.79436773  0.72129578     0.02200
C2983       C  0.25878388  0.82757871  0.65323093     0.12100
C2984       C  0.25376293  0.74844446  0.63878328     0.62700
H2985       H  0.23701074  0.71558660  0.68141493     0.12200
C2986       C  0.23282977  0.80943180  0.75141715     0.54900
H2987       H  0.24841885  0.84396336  0.70733274     0.07900
C2988       C  0.25112672  0.85161934  0.63393413    -0.05900
C2989       C  0.25901372  0.87205518  0.61253141    -0.06600
C2990       C  0.27428959  0.86905045  0.60924471    -0.16200
C2991       C  0.28205103  0.84617603  0.62945946    -0.01800
C2992       C  0.27414420  0.82615262  0.65133522    -0.09300
C2993       C  0.23457975  0.85491667  0.63545545     0.65000
H2994       H  0.25311414  0.88941346  0.59707504     0.10400
C2995       C  0.29857858  0.84297623  0.62813116     0.63300
H2996       H  0.27987673  0.80809995  0.66652959     0.07800
F2997       F  0.21780299  0.81129564  0.75359248    -0.19700
F2998       F  0.23840044  0.84422259  0.75597457    -0.15900
F2999       F  0.23816989  0.78678008  0.77363064    -0.19400
F3000       F  0.26886437  0.74796505  0.63985194    -0.22800
F3001       F  0.24933370  0.76860610  0.61429947    -0.24300
F3002       F  0.24896016  0.71278601  0.63509247    -0.18300
F3003       F  0.30410436  0.82499904  0.65285645    -0.20700
F3004       F  0.30478220  0.87752806  0.62697587    -0.21900
F3005       F  0.30269216  0.82350741  0.60323540    -0.19100
F3006       F  0.22916416  0.87840714  0.61386595    -0.19200
F3007       F  0.23050511  0.86836315  0.66289386    -0.23000
F3008       F  0.22819109  0.82097467  0.63137723    -0.24600
C3009       C  0.04691685  0.40033834  0.86333629    -0.11400
C3010       C  0.03314695  0.38550093  0.86941701     0.11200
C3011       C  0.02041326  0.40562337  0.86269339    -0.03200
C3012       C  0.02191196  0.43895103  0.84726931    -0.06000
C3013       C  0.03572485  0.45319897  0.83928031    -0.16700
C3014       C  0.04856164  0.43410471  0.84861341     0.02200
C3015       C  0.03264841  0.34949119  0.88442342     0.12100
C3016       C  0.00539032  0.39228942  0.87236088     0.62700
H3017       H  0.01216018  0.45390531  0.84109305     0.12200
C3018       C  0.06398504  0.44844595  0.84336301     0.54900
H3019       H  0.05643842  0.38464833  0.86992703     0.07900
C3020       C  0.03330846  0.31619382  0.86845077    -0.05900
C3021       C  0.03375339  0.28306550  0.88455149    -0.06600
C3022       C  0.03441849  0.28287915  0.91565335    -0.16200
C3023       C  0.03426903  0.31630221  0.93149003    -0.01800
C3024       C  0.03310087  0.34917746  0.91547265    -0.09300
C3025       C  0.03419958  0.31587726  0.83472370     0.65000
H3026       H  0.03419865  0.25710322  0.87301136     0.10400
C3027       C  0.03553937  0.31730729  0.96510010     0.63300
H3028       H  0.03301020  0.37517341  0.92699061     0.07800
F3029       F  0.06728616  0.44733089  0.81338236    -0.19700
F3030       F  0.07437607  0.42766601  0.85817194    -0.15900
F3031       F  0.06515754  0.48397605  0.85365207    -0.19400
F3032       F  0.00480590  0.39052885  0.90304229    -0.22800
F3033       F  0.00264430  0.35787699  0.86102499    -0.24300
F3034       F  0.99438420  0.41549585  0.86271652    -0.18300
F3035       F  0.03491133  0.35267981  0.97595561    -0.20700
F3036       F  0.04873154  0.30228216  0.97384351    -0.21900
F3037       F  0.02419323  0.29768114  0.97765689    -0.19100
F3038       F  0.03480028  0.28057581  0.82370637    -0.19200
F3039       F  0.04665690  0.33416459  0.82550527    -0.23000
F3040       F  0.02211314  0.33298387  0.82258526    -0.24600
C3041       C  0.06991738  0.61222853  0.58356977    -0.11400
C3042       C  0.05800954  0.61377929  0.60328418     0.11200
C3043       C  0.04435131  0.62715134  0.59306223    -0.03200
C3044       C  0.04317654  0.63937628  0.56351810    -0.06000
C3045       C  0.05505906  0.63826156  0.54390580    -0.16700
C3046       C  0.06858315  0.62366561  0.55364586     0.02200
C3047       C  0.06007015  0.60253543  0.63487650     0.12100
C3048       C  0.03104727  0.62853219  0.61327455     0.62700
H3049       H  0.03283268  0.64964601  0.55527142     0.12200
C3050       C  0.08150817  0.62072093  0.53264773     0.54900
H3051       H  0.08025473  0.60196556  0.59184886     0.07900
C3052       C  0.05859286  0.56579525  0.64431891    -0.05900
C3053       C  0.05796833  0.55826845  0.67500749    -0.06600
C3054       C  0.05882238  0.58617889  0.69658707    -0.16200
C3055       C  0.06182876  0.62269244  0.68682297    -0.01800
C3056       C  0.06244230  0.62996232  0.65600504    -0.09300
C3057       C  0.05742545  0.53480924  0.62201784     0.65000
H3058       H  0.05627232  0.53027919  0.68224626     0.10400
C3059       C  0.06396246  0.65438252  0.70819161     0.63300
H3060       H  0.06398225  0.65771227  0.64796710     0.07800
F3061       F  0.09387975  0.60781337  0.54698701    -0.19700
F3062       F  0.08470054  0.65477188  0.52067368    -0.15900
F3063       F  0.07818507  0.59676408  0.50992320    -0.19400
F3064       F  0.03389340  0.65070715  0.63727455    -0.22800
F3065       F  0.02767409  0.59376852  0.62343370    -0.24300
F3066       F  0.01887920  0.64239688  0.59879694    -0.18300
F3067       F  0.07507046  0.64626427  0.72802028    -0.20700
F3068       F  0.05113682  0.66100458  0.72347181    -0.21900
F3069       F  0.06776923  0.68644742  0.69353705    -0.19100
F3070       F  0.05631912  0.50095787  0.63586214    -0.19200
F3071       F  0.06974027  0.53440537  0.60419999    -0.23000
F3072       F  0.04522249  0.53956939  0.60431874    -0.24600
C3073       C  0.10581485  0.62089566  0.82203242    -0.11400
C3074       C  0.11596163  0.60290333  0.80405891     0.11200
C3075       C  0.11193463  0.56984936  0.79000275    -0.03200
C3076       C  0.09723623  0.55831353  0.79159809    -0.06000
C3077       C  0.08651970  0.57844142  0.80710067    -0.16700
C3078       C  0.09116851  0.60920329  0.82417610     0.02200
C3079       C  0.13070976  0.61966703  0.80047924     0.12100
C3080       C  0.12308623  0.54714655  0.77314729     0.62700
H3081       H  0.09392592  0.53418265  0.77946011     0.12200
C3082       C  0.08087909  0.63100922  0.84373586     0.54900
H3083       H  0.10938034  0.64537133  0.83345576     0.07900
C3084       C  0.13373399  0.64585109  0.77797487    -0.05900
C3085       C  0.14809210  0.65947689  0.77513353    -0.06600
C3086       C  0.15934016  0.64886826  0.79470626    -0.16200
C3087       C  0.15581433  0.62533927  0.81912238    -0.01800
C3088       C  0.14156955  0.61075972  0.82118148    -0.09300
C3089       C  0.12176573  0.65977199  0.75739544     0.65000
H3090       H  0.15070144  0.67789581  0.75694907     0.10400
C3091       C  0.16674768  0.61607652  0.84347508     0.63300
H3092       H  0.13878224  0.59185109  0.83894703     0.07800
F3093       F  0.07172103  0.65190153  0.82607444    -0.19700
F3094       F  0.08838126  0.65458158  0.86232594    -0.15900
F3095       F  0.07277992  0.60758561  0.86156920    -0.19400
F3096       F  0.13451094  0.53787590  0.79182876    -0.22800
F3097       F  0.12853670  0.56685706  0.74929702    -0.24300
F3098       F  0.11706055  0.51503226  0.76239945    -0.18300
F3099       F  0.16001367  0.60001071  0.86785646    -0.20700
F3100       F  0.17356866  0.64771117  0.85307584    -0.21900
F3101       F  0.17707846  0.59172151  0.83305957    -0.19100
F3102       F  0.12704009  0.68505665  0.73699956    -0.19200
F3103       F  0.11098095  0.67659992  0.77396122    -0.23000
F3104       F  0.11564224  0.63110083  0.74181647    -0.24600
C3105       C  0.97758796  0.42444748  0.64589370    -0.11400
C3106       C  0.99236237  0.41765899  0.65242222     0.11200
C3107       C  0.99993072  0.39062543  0.63597847    -0.03200
C3108       C  0.99234185  0.37082963  0.61396901    -0.06000
C3109       C  0.97762781  0.37797749  0.60687783    -0.16700
C3110       C  0.97014206  0.40582607  0.62288217     0.02200
C3111       C  0.99965159  0.43946897  0.67643940     0.12100
C3112       C  0.01606868  0.38318446  0.64120616     0.62700
H3113       H  0.99806745  0.35013078  0.60134257     0.12200
C3114       C  0.95439787  0.41601014  0.61598776     0.54900
H3115       H  0.97200007  0.44520461  0.65870407     0.07900
C3116       C  0.00449861  0.47602148  0.67179156    -0.05900
C3117       C  0.01131846  0.49480846  0.69539722    -0.06600
C3118       C  0.01353617  0.47825648  0.72323667    -0.16200
C3119       C  0.00873034  0.44178060  0.72797066    -0.01800
C3120       C  0.00173737  0.42307508  0.70448384    -0.09300
C3121       C  0.00238522  0.49530082  0.64211376     0.65000
H3122       H  0.01502725  0.52275278  0.69229988     0.10400
C3123       C  0.01075008  0.42309700  0.75791386     0.63300
H3124       H  0.99786534  0.39531771  0.70777361     0.07800
F3125       F  0.94880914  0.44053933  0.63642887    -0.19700
F3126       F  0.94571041  0.38499633  0.61655597    -0.15900
F3127       F  0.95359262  0.43234167  0.58823892    -0.19400
F3128       F  0.01808170  0.36872865  0.66934547    -0.22800
F3129       F  0.02396597  0.41534670  0.63860507    -0.24300
F3130       F  0.02165610  0.35857018  0.62083634    -0.18300
F3131       F  0.00462172  0.38840930  0.75846777    -0.20700
F3132       F  0.00414163  0.44367665  0.77985971    -0.21900
F3133       F  0.02548830  0.41973739  0.76418480    -0.19100
F3134       F  0.00944027  0.52885541  0.64125542    -0.19200
F3135       F  0.98765927  0.50123555  0.63725365    -0.23000
F3136       F  0.00792507  0.47417923  0.61933540    -0.24600
C3137       C  0.94879834  0.56809885  0.10977572    -0.11400
C3138       C  0.96050325  0.59264178  0.11179409     0.11200
C3139       C  0.97319399  0.58308356  0.12796891    -0.03200
C3140       C  0.97333033  0.54956346  0.14335729    -0.06000
C3141       C  0.96123528  0.52583733  0.14276161    -0.16700
C3142       C  0.94917970  0.53399163  0.12410398     0.02200
C3143       C  0.95866997  0.62925355  0.09855397     0.12100
C3144       C  0.98626948  0.60872213  0.12975278     0.62700
H3145       H  0.98253597  0.54275082  0.15747469     0.12200
C3146       C  0.93643766  0.50799528  0.11947320     0.54900
H3147       H  0.93918234  0.57599892  0.09719808     0.07900
C3148       C  0.96047975  0.63568321  0.06780954    -0.05900
C3149       C  0.95863088  0.67147881  0.05717279    -0.06600
C3150       C  0.95469191  0.70028137  0.07615175    -0.16200
C3151       C  0.95217882  0.69340556  0.10666356    -0.01800
C3152       C  0.95448214  0.65781485  0.11744446    -0.09300
C3153       C  0.96416857  0.60497790  0.04637831     0.65000
H3154       H  0.96031070  0.67737666  0.03378129     0.10400
C3155       C  0.94673814  0.72173669  0.12854561     0.63300
H3156       H  0.95276209  0.65200428  0.14085435     0.07800
F3157       F  0.93114625  0.51129509  0.09075140    -0.19700
F3158       F  0.92534596  0.51651673  0.13913111    -0.15900
F3159       F  0.94054146  0.47183384  0.12351534    -0.19400
F3160       F  0.98239860  0.64056768  0.14423068    -0.22800
F3161       F  0.99110450  0.61744961  0.10147602    -0.24300
F3162       F  0.99780608  0.59296946  0.14506991    -0.18300
F3163       F  0.95773749  0.72926577  0.14868143    -0.20700
F3164       F  0.93483538  0.70782699  0.14388663    -0.21900
F3165       F  0.94234009  0.75397680  0.11504366    -0.19100
F3166       F  0.96676199  0.61806912  0.01790859    -0.19200
F3167       F  0.95263721  0.58055909  0.04504219    -0.23000
F3168       F  0.97654711  0.58657966  0.05575598    -0.24600
C3169       C  0.98295881  0.87774921  0.15986371    -0.11400
C3170       C  0.98207250  0.91604151  0.15904629     0.11200
C3171       C  0.97310907  0.93316756  0.13737173    -0.03200
C3172       C  0.96532373  0.91110876  0.11709963    -0.06000
C3173       C  0.96690480  0.87275992  0.11673478    -0.16700
C3174       C  0.97531807  0.85575826  0.13947713     0.02200
C3175       C  0.99128479  0.93747485  0.18013273     0.12100
C3176       C  0.97265410  0.97459365  0.13424550     0.62700
H3177       H  0.95907347  0.92398018  0.09948200     0.12200
C3178       C  0.97663498  0.81465335  0.14289868     0.54900
H3179       H  0.98988360  0.86489530  0.17645286     0.07900
C3180       C  0.98686761  0.94464702  0.20970358    -0.05900
C3181       C  0.99595876  0.96627089  0.22783938    -0.06600
C3182       C  0.00952059  0.97969811  0.21780897    -0.16200
C3183       C  0.01411693  0.97155164  0.18839938    -0.01800
C3184       C  0.00486553  0.95047353  0.17011637    -0.09300
C3185       C  0.97272402  0.92907941  0.22216107     0.65000
H3186       H  0.99264701  0.97235829  0.25038481     0.10400
C3187       C  0.02837319  0.98618839  0.17577879     0.63300
H3188       H  0.00810687  0.94405756  0.14759082     0.07800
F3189       F  0.97603601  0.80500142  0.17268260    -0.19700
F3190       F  0.98984147  0.80320932  0.13125555    -0.15900
F3191       F  0.96538693  0.79666055  0.12875008    -0.19400
F3192       F  0.98620648  0.98727518  0.12523125    -0.22800
F3193       F  0.96908851  0.99043698  0.16112059    -0.24300
F3194       F  0.96243096  0.98580117  0.11342435    -0.18300
F3195       F  0.04007103  0.97124183  0.19101463    -0.20700
F3196       F  0.02866444  0.02387305  0.17825070    -0.21900
F3197       F  0.03002516  0.97764366  0.14601724    -0.19100
F3198       F  0.97025432  0.94033256  0.25107745    -0.19200
F3199       F  0.97335857  0.89125247  0.22216461    -0.23000
F3200       F  0.96102270  0.94035161  0.20498344    -0.24600
C3201       C  0.00235414  0.94419413  0.01580751    -0.11400
C3202       C  0.99934477  0.95799065  0.98740299     0.11200
C3203       C  0.99259530  0.93551369  0.96590905    -0.03200
C3204       C  0.98647277  0.90221512  0.97550141    -0.06000
C3205       C  0.98821237  0.89026946  0.00494280    -0.16700
C3206       C  0.99727962  0.90977391  0.02463275     0.02200
C3207       C  0.00500712  0.99461507  0.98045022     0.12100
C3208       C  0.99217140  0.94632543  0.93328807     0.62700
H3209       H  0.97974037  0.88620853  0.96059785     0.12200
C3210       C  0.00028785  0.89627353  0.05588444     0.54900
H3211       H  0.00839386  0.96105755  0.03131616     0.07900
C3212       C  0.99685429  0.02692106  0.98524241    -0.05900
C3213       C  0.00383199  0.06087801  0.98091387    -0.06600
C3214       C  0.01875676  0.06300755  0.97366665    -0.16200
C3215       C  0.02693993  0.02989179  0.96959279    -0.01800
C3216       C  0.01969736  0.99646910  0.97285918    -0.09300
C3217       C  0.98113111  0.02539941  0.99611005     0.65000
H3218       H  0.99779095  0.08606281  0.98407352     0.10400
C3219       C  0.04313509  0.02840047  0.96143668     0.63300
H3220       H  0.02554242  0.97087029  0.97030985     0.07800
F3221       F  0.98833885  0.90360594  0.07347765    -0.19700
F3222       F  0.01238407  0.91345875  0.06797500    -0.15900
F3223       F  0.00293500  0.85897018  0.05593175    -0.19400
F3224       F  0.00628166  0.95144966  0.92307174    -0.22800
F3225       F  0.98443356  0.97844258  0.92937997    -0.24300
F3226       F  0.98570519  0.91947037  0.91610521    -0.18300
F3227       F  0.04806366  0.99289145  0.95747945    -0.20700
F3228       F  0.05150714  0.04340389  0.98379309    -0.21900
F3229       F  0.04555851  0.04678059  0.93507352    -0.19100
F3230       F  0.97517413  0.06004508  0.99903074    -0.19200
F3231       F  0.98059154  0.00822750  0.02355465    -0.23000
F3232       F  0.97256351  0.00606106  0.97638916    -0.24600
C3233       C  0.01431876  0.68028535  0.89376626    -0.11400
C3234       C  0.00200841  0.66468032  0.90738944     0.11200
C3235       C  0.99780915  0.62875730  0.89936295    -0.03200
C3236       C  0.00650576  0.60904063  0.87891247    -0.06000
C3237       C  0.01872751  0.62473124  0.86432368    -0.16700
C3238       C  0.02254207  0.66160804  0.87185622     0.02200
C3239       C  0.99325966  0.68745466  0.92874339     0.12100
C3240       C  0.98371476  0.61210020  0.91121505     0.62700
H3241       H  0.00319787  0.58161909  0.87288303     0.12200
C3242       C  0.03489377  0.68216373  0.85657456     0.54900
H3243       H  0.01710283  0.70810075  0.89979129     0.07900
C3244       C  0.99643407  0.68862238  0.95951511    -0.05900
C3245       C  0.98745610  0.70980977  0.97833718    -0.06600
C3246       C  0.97567508  0.73106973  0.96753419    -0.16200
C3247       C  0.97287642  0.73083642  0.93637328    -0.01800
C3248       C  0.98169656  0.70885859  0.91766782    -0.09300
C3249       C  0.00961261  0.66866745  0.97227954     0.65000
H3250       H  0.98976538  0.71019312  0.00192061     0.10400
C3251       C  0.96085546  0.75394988  0.92257617     0.63300
H3252       H  0.97962540  0.70808055  0.89398695     0.07800
F3253       F  0.03725143  0.71633627  0.86890344    -0.19700
F3254       F  0.03156682  0.68749913  0.82686729    -0.15900
F3255       F  0.04769959  0.66245074  0.85932691    -0.19400
F3256       F  0.97197390  0.63318343  0.90210106    -0.22800
F3257       F  0.98394004  0.61083688  0.94190716    -0.24300
F3258       F  0.98156683  0.57683080  0.90096104    -0.18300
F3259       F  0.96259211  0.79022584  0.93061939    -0.20700
F3260       F  0.94739742  0.74130738  0.93214400    -0.21900
F3261       F  0.96104242  0.75239127  0.89183721    -0.19100
F3262       F  0.01033322  0.67167744  0.00291388    -0.19200
F3263       F  0.02225928  0.68348688  0.96041520    -0.23000
F3264       F  0.00903806  0.63185770  0.96542911    -0.24600
C3265       C  0.79054941  0.16916909  0.11743629    -0.11400
C3266       C  0.78478036  0.13958573  0.13368755     0.11200
C3267       C  0.77993731  0.14419827  0.16321770    -0.03200
C3268       C  0.78019119  0.17950280  0.17503704    -0.06000
C3269       C  0.78579575  0.20909040  0.15867965    -0.16700
C3270       C  0.79129434  0.20424156  0.12978035     0.02200
C3271       C  0.78423114  0.10392652  0.11907418     0.12100
C3272       C  0.77522795  0.11191618  0.18247886     0.62700
H3273       H  0.77649127  0.18416161  0.19759383     0.12200
C3274       C  0.79782622  0.23596433  0.11243117     0.54900
H3275       H  0.79448157  0.16442408  0.09506550     0.07900
C3276       C  0.77239641  0.09424449  0.10061501    -0.05900
C3277       C  0.77311959  0.06090826  0.08559615    -0.06600
C3278       C  0.78540629  0.03794903  0.08789922    -0.16200
C3279       C  0.79724132  0.04775567  0.10653482    -0.01800
C3280       C  0.79636316  0.08085606  0.12206021    -0.09300
C3281       C  0.75928958  0.11940486  0.09619224     0.65000
H3282       H  0.76425515  0.05314602  0.07096582     0.10400
C3283       C  0.81073966  0.02389692  0.10995261     0.63300
H3284       H  0.80533751  0.08964045  0.13602200     0.07800
F3285       F  0.80215155  0.22555332  0.08422397    -0.19700
F3286       F  0.80994209  0.24922936  0.12728252    -0.15900
F3287       F  0.78760006  0.26367023  0.10965237    -0.19400
F3288       F  0.78694022  0.08849932  0.18649085    -0.22800
F3289       F  0.76395928  0.09290833  0.16915292    -0.24300
F3290       F  0.77046716  0.12305500  0.21022226    -0.18300
F3291       F  0.81956086  0.03562805  0.13302114    -0.20700
F3292       F  0.81890060  0.02516237  0.08408108    -0.21900
F3293       F  0.80669123  0.98808360  0.11592394    -0.19100
F3294       F  0.74909809  0.10453155  0.07696390    -0.19200
F3295       F  0.76380871  0.15256513  0.08440184    -0.23000
F3296       F  0.75241446  0.12561026  0.12303656    -0.24600
C3297       C  0.73681049  0.04179131  0.95705436    -0.11400
C3298       C  0.74465804  0.06216137  0.93594715     0.11200
C3299       C  0.76012129  0.06148156  0.93655820    -0.03200
C3300       C  0.76725794  0.03930607  0.95785288    -0.06000
C3301       C  0.75947166  0.01744726  0.97836874    -0.16700
C3302       C  0.74386384  0.01940533  0.97835670     0.02200
C3303       C  0.73633010  0.08182760  0.91217340     0.12100
C3304       C  0.76897533  0.08365451  0.91431565     0.62700
H3305       H  0.77908075  0.03830999  0.95812192     0.12200
C3306       C  0.73449267  0.99842578  0.00061924     0.54900
H3307       H  0.72498614  0.04284965  0.95608690     0.07900
C3308       C  0.73228921  0.06468392  0.88519514    -0.05900
C3309       C  0.72427026  0.08481282  0.86406035    -0.06600
C3310       C  0.72066111  0.12193136  0.86793159    -0.16200
C3311       C  0.72449960  0.13899070  0.89519849    -0.01800
C3312       C  0.73207092  0.11831548  0.91704101    -0.09300
C3313       C  0.73640831  0.02573976  0.87676806     0.65000
H3314       H  0.72143346  0.07154425  0.84340168     0.10400
C3315       C  0.72048087  0.17848981  0.90157872     0.63300
H3316       H  0.73508972  0.13080580  0.93794767     0.07800
F3317       F  0.71990649  0.00831993  0.99887806    -0.19700
F3318       F  0.73916790  0.00563061  0.02924516    -0.15900
F3319       F  0.73536626  0.96124791  0.99510930    -0.19400
F3320       F  0.76565381  0.12040659  0.91718894    -0.22800
F3321       F  0.76570175  0.07259830  0.88574089    -0.24300
F3322       F  0.78386603  0.07940393  0.91858998    -0.18300
F3323       F  0.70578771  0.18396617  0.89587215    -0.20700
F3324       F  0.72871654  0.20178023  0.88394989    -0.21900
F3325       F  0.72304830  0.18753876  0.93097031    -0.19100
F3326       F  0.74398121  0.02652098  0.85013716    -0.19200
F3327       F  0.72380243  0.00534222  0.87311607    -0.23000
F3328       F  0.74508291  0.00812190  0.89748618    -0.24600
C3329       C  0.88676380  0.86400477  0.08452690    -0.11400
C3330       C  0.87603864  0.85625695  0.06321428     0.11200
C3331       C  0.87926241  0.83139708  0.03999258    -0.03200
C3332       C  0.89341970  0.81635128  0.03820444    -0.06000
C3333       C  0.90444653  0.82615917  0.05830730    -0.16700
C3334       C  0.90089726  0.84895651  0.08273213     0.02200
C3335       C  0.86191051  0.87656116  0.06418408     0.12100
C3336       C  0.86806167  0.82253202  0.01614927     0.62700
H3337       H  0.89635735  0.79940139  0.01942491     0.12200
C3338       C  0.91157123  0.85839335  0.10733590     0.54900
H3339       H  0.88419137  0.88281335  0.10235824     0.07900
C3340       C  0.84997987  0.86491071  0.08177763    -0.05900
C3341       C  0.83633590  0.88214672  0.07776207    -0.06600
C3342       C  0.83421175  0.91049031  0.05668519    -0.16200
C3343       C  0.84669507  0.92462673  0.04143739    -0.01800
C3344       C  0.86033667  0.90735612  0.04574101    -0.09300
C3345       C  0.85158594  0.83375369  0.10405387     0.65000
H3346       H  0.82701050  0.87223691  0.09025823     0.10400
C3347       C  0.84578821  0.95655736  0.01971885     0.63300
H3348       H  0.86984384  0.91647881  0.03338416     0.07800
F3349       F  0.90544422  0.84907479  0.13446546    -0.19700
F3350       F  0.91430769  0.89565816  0.10690699    -0.15900
F3351       F  0.92469387  0.83990997  0.10497724    -0.19400
F3352       F  0.86497004  0.85365108  0.99969236    -0.22800
F3353       F  0.85532167  0.80975890  0.02908491    -0.24300
F3354       F  0.87308053  0.79595529  0.99683678    -0.18300
F3355       F  0.85944303  0.96698510  0.00937554    -0.20700
F3356       F  0.83965936  0.98657027  0.03361452    -0.21900
F3357       F  0.83743311  0.94681962  0.99538662    -0.19100
F3358       F  0.83871217  0.82715841  0.11938078    -0.19200
F3359       F  0.86226289  0.84235707  0.12460314    -0.23000
F3360       F  0.85550782  0.80194101  0.08957987    -0.24600
C3361       C  0.73232786  0.80742674  0.18481166    -0.11400
C3362       C  0.74763333  0.80641250  0.18489569     0.11200
C3363       C  0.75495275  0.78547264  0.20679902    -0.03200
C3364       C  0.74659355  0.76412389  0.22678962    -0.06000
C3365       C  0.73115322  0.76378483  0.22620379    -0.16700
C3366       C  0.72387048  0.78668536  0.20507187     0.02200
C3367       C  0.75561384  0.82672149  0.16098156     0.12100
C3368       C  0.77152732  0.78606258  0.20912871     0.62700
H3369       H  0.75216409  0.74761082  0.24330794     0.12200
C3370       C  0.70731004  0.78910310  0.20309051     0.54900
H3371       H  0.72705252  0.82439174  0.16817383     0.07900
C3372       C  0.75790451  0.81111127  0.13264336    -0.05900
C3373       C  0.76505704  0.83199156  0.11059442    -0.06600
C3374       C  0.76944305  0.86844200  0.11544591    -0.16200
C3375       C  0.76703923  0.88418097  0.14390613    -0.01800
C3376       C  0.76024737  0.86276781  0.16626847    -0.09300
C3377       C  0.75226379  0.77301766  0.12536961     0.65000
H3378       H  0.76659841  0.82046069  0.08868845     0.10400
C3379       C  0.77160459  0.92321405  0.15088914     0.63300
H3380       H  0.75813950  0.87431609  0.18797315     0.07800
F3381       F  0.70278406  0.81118525  0.17973366    -0.19700
F3382       F  0.70174521  0.80388462  0.22896892    -0.15900
F3383       F  0.70148480  0.75464793  0.19863810    -0.19400
F3384       F  0.77623254  0.82142324  0.21443940    -0.22800
F3385       F  0.77773471  0.77389735  0.18297430    -0.24300
F3386       F  0.77653044  0.76396489  0.23205709    -0.18300
F3387       F  0.76275083  0.94767702  0.13575603    -0.20700
F3388       F  0.78601509  0.92869143  0.14263027    -0.21900
F3389       F  0.77042646  0.93070934  0.18093213    -0.19100
F3390       F  0.75626372  0.76231868  0.09706078    -0.19200
F3391       F  0.73717169  0.77257836  0.12705846    -0.23000
F3392       F  0.75781411  0.74761017  0.14522389    -0.24600
C3393       C  0.75106427  0.79975270  0.96808689    -0.11400
C3394       C  0.74390101  0.77848578  0.98946577     0.11200
C3395       C  0.74031649  0.79317805  0.01758368    -0.03200
C3396       C  0.74541707  0.82832334  0.02439990    -0.06000
C3397       C  0.75369915  0.84831146  0.00374472    -0.16700
C3398       C  0.75551884  0.83533082  0.97447779     0.02200
C3399       C  0.74056104  0.74053699  0.98193820     0.12100
C3400       C  0.73165609  0.77136080  0.04047122     0.62700
H3401       H  0.74408901  0.83901769  0.04666323     0.12200
C3402       C  0.76294289  0.85780831  0.95048852     0.54900
H3403       H  0.75348124  0.78804515  0.94653681     0.07900
C3404       C  0.72808638  0.73181032  0.96508851    -0.05900
C3405       C  0.72466077  0.69491706  0.96158354    -0.06600
C3406       C  0.73345314  0.66716187  0.97385499    -0.16200
C3407       C  0.74658270  0.67578559  0.98842436    -0.01800
C3408       C  0.74999920  0.71292367  0.99232463    -0.09300
C3409       C  0.71843700  0.76121880  0.95116556     0.65000
H3410       H  0.71481176  0.68741514  0.94975341     0.10400
C3411       C  0.75647522  0.64597878  0.00043094     0.63300
H3412       H  0.75976951  0.72076981  0.00433061     0.07800
F3413       F  0.76018013  0.89466922  0.95455782    -0.19700
F3414       F  0.75769300  0.84832587  0.92273890    -0.15900
F3415       F  0.77784306  0.85165391  0.95121417    -0.19400
F3416       F  0.73923118  0.74010058  0.04847682    -0.22800
F3417       F  0.71828388  0.76134998  0.02875479    -0.24300
F3418       F  0.72907355  0.79148533  0.06592651    -0.18300
F3419       F  0.76125481  0.62435510  0.97723306    -0.20700
F3420       F  0.74886840  0.62448521  0.02059464    -0.21900
F3421       F  0.76860554  0.66031571  0.01461074    -0.19100
F3422       F  0.70624816  0.74638611  0.93752395    -0.19200
F3423       F  0.72629282  0.78034839  0.92990204    -0.23000
F3424       F  0.71363392  0.78541242  0.97257440    -0.24600
C3425       C  0.95418215  0.10423828  0.65852844    -0.11400
C3426       C  0.95701129  0.10332598  0.62801058     0.11200
C3427       C  0.95995063  0.06962109  0.61378687    -0.03200
C3428       C  0.95943410  0.03730412  0.63082887    -0.06000
C3429       C  0.95642923  0.03821759  0.66134579    -0.16700
C3430       C  0.95398102  0.07212254  0.67569204     0.02200
C3431       C  0.95749252  0.13862247  0.61197279     0.12100
C3432       C  0.96398720  0.06796303  0.58107290     0.62700
H3433       H  0.96167221  0.01108051  0.62063101     0.12200
C3434       C  0.95206930  0.07471887  0.70914013     0.54900
H3435       H  0.95244556  0.13060864  0.66886820     0.07900
C3436       C  0.94464376  0.15701684  0.60314367    -0.05900
C3437       C  0.94600056  0.19057781  0.58815635    -0.06600
C3438       C  0.95974253  0.20619282  0.58163259    -0.16200
C3439       C  0.97267805  0.18769007  0.59122087    -0.01800
C3440       C  0.97117771  0.15436525  0.60666888    -0.09300
C3441       C  0.92957163  0.14139503  0.60974040     0.65000
H3442       H  0.93617540  0.20476544  0.58128018     0.10400
C3443       C  0.98804680  0.20194356  0.58509091     0.63300
H3444       H  0.98073999  0.13980153  0.61456353     0.07800
F3445       F  0.93968954  0.05585234  0.71794316    -0.19700
F3446       F  0.95062434  0.11062936  0.71844175    -0.15900
F3447       F  0.96419320  0.06003350  0.72309793    -0.19400
F3448       F  0.97728325  0.08512923  0.57653629    -0.22800
F3449       F  0.95342431  0.08528393  0.56411932    -0.24300
F3450       F  0.96521455  0.03221649  0.57124900    -0.18300
F3451       F  0.98984448  0.23595610  0.59800195    -0.20700
F3452       F  0.99040136  0.20436462  0.55475351    -0.21900
F3453       F  0.99871138  0.17907198  0.59668492    -0.19100
F3454       F  0.91859478  0.16164132  0.59628472    -0.19200
F3455       F  0.92712746  0.14153716  0.64005622    -0.23000
F3456       F  0.92859539  0.10585478  0.59946050    -0.24600
C3457       C  0.00807153  0.02738806  0.78674403    -0.11400
C3458       C  0.00047199  0.04766641  0.80810541     0.11200
C3459       C  0.98501206  0.04563763  0.80884524    -0.03200
C3460       C  0.97770931  0.02316765  0.78814641    -0.06000
C3461       C  0.98524313  0.00232539  0.76670729    -0.16700
C3462       C  0.00085177  0.00428136  0.76630787     0.02200
C3463       C  0.00905129  0.06935899  0.83034990     0.12100
C3464       C  0.97623193  0.06736356  0.83133917     0.62700
H3465       H  0.96589039  0.02187433  0.78862110     0.12200
C3466       C  0.01007132  0.98232788  0.74472476     0.54900
H3467       H  0.01987515  0.02957899  0.78653065     0.07900
C3468       C  0.01588148  0.05235012  0.85506351    -0.05900
C3469       C  0.02287669  0.07441371  0.87631962    -0.06600
C3470       C  0.02373440  0.11278744  0.87360053    -0.16200
C3471       C  0.01752070  0.12970067  0.84803610    -0.01800
C3472       C  0.01025058  0.10756912  0.82686520    -0.09300
C3473       C  0.01590162  0.01096056  0.85899060     0.65000
H3474       H  0.02753599  0.06156379  0.89583571     0.10400
C3475       C  0.01877302  0.17064905  0.84270608     0.63300
H3476       H  0.00524542  0.12002758  0.80747338     0.07800
F3477       F  0.02487499  0.98914344  0.74805332    -0.19700
F3478       F  0.00631008  0.99115897  0.71579927    -0.15900
F3479       F  0.00788714  0.94539997  0.74976727    -0.19400
F3480       F  0.97779696  0.10438739  0.82559427    -0.22800
F3481       F  0.98111797  0.05984345  0.85980733    -0.24300
F3482       F  0.96147793  0.05895572  0.83018954    -0.18300
F3483       F  0.01425465  0.18034435  0.81437128    -0.20700
F3484       F  0.03318053  0.18152971  0.84586462    -0.21900
F3485       F  0.01015259  0.18926890  0.86283778    -0.19100
F3486       F  0.02193171  0.00045537  0.88593850    -0.19200
F3487       F  0.02410560  0.99518325  0.83666333    -0.23000
F3488       F  0.00178495  0.99747261  0.85784251    -0.24600
C3489       C  0.94407080  0.87185253  0.84378823    -0.11400
C3490       C  0.92953715  0.87474478  0.85335009     0.11200
C3491       C  0.91836943  0.88344905  0.83260306    -0.03200
C3492       C  0.92244866  0.89124249  0.80307681    -0.06000
C3493       C  0.93708808  0.88941861  0.79396422    -0.16700
C3494       C  0.94795381  0.87752343  0.81405106     0.02200
C3495       C  0.92700338  0.86685091  0.88514502     0.12100
C3496       C  0.90217337  0.88409695  0.83994964     0.62700
H3497       H  0.91417064  0.89928185  0.78707852     0.12200
C3498       C  0.96333868  0.86876998  0.80371539     0.54900
H3499       H  0.95232997  0.86395364  0.85985359     0.07900
C3500       C  0.92662291  0.83042633  0.89571744    -0.05900
C3501       C  0.92833442  0.82415919  0.92623180    -0.06600
C3502       C  0.93089882  0.85296359  0.94627673    -0.16200
C3503       C  0.92979311  0.88969478  0.93597478    -0.01800
C3504       C  0.92792460  0.89596576  0.90528286    -0.09300
C3505       C  0.92534228  0.79822929  0.87460042     0.65000
H3506       H  0.92868769  0.79620082  0.93426572     0.10400
C3507       C  0.93082250  0.92215270  0.95681082     0.63300
H3508       H  0.92813495  0.92366076  0.89651464     0.07800
F3509       F  0.97210953  0.85668192  0.82684769    -0.19700
F3510       F  0.96978627  0.89944851  0.79121620    -0.15900
F3511       F  0.96268369  0.84116631  0.78285341    -0.19400
F3512       F  0.89622502  0.91715183  0.83090507    -0.22800
F3513       F  0.89932297  0.87966096  0.86991420    -0.24300
F3514       F  0.89527280  0.85615904  0.82473063    -0.18300
F3515       F  0.92625708  0.95421990  0.94312064    -0.20700
F3516       F  0.94514705  0.92688195  0.96584171    -0.21900
F3517       F  0.92199384  0.91641565  0.98139737    -0.19100
F3518       F  0.92364002  0.76535623  0.88968984    -0.19200
F3519       F  0.93780225  0.79580349  0.85732828    -0.23000
F3520       F  0.91334634  0.80288757  0.85630893    -0.24600
C3521       C  0.00756162  0.79300515  0.56285964    -0.11400
C3522       C  0.99344924  0.80369803  0.55435598     0.11200
C3523       C  0.98790479  0.79229311  0.52652918    -0.03200
C3524       C  0.99653079  0.76908878  0.50865041    -0.06000
C3525       C  0.01062822  0.75781565  0.51730012    -0.16700
C3526       C  0.01627067  0.77007205  0.54500455     0.02200
C3527       C  0.98459760  0.82522375  0.57606824     0.12100
C3528       C  0.97305020  0.80508169  0.51562879     0.62700
H3529       H  0.99242958  0.76019432  0.48730386     0.12200
C3530       C  0.03109474  0.75789060  0.55657497     0.54900
H3531       H  0.01160698  0.80244368  0.58410046     0.07900
C3532       C  0.97796280  0.80811291  0.60090905    -0.05900
C3533       C  0.97110138  0.83004600  0.62237260    -0.06600
C3534       C  0.97084648  0.86864304  0.62044792    -0.16200
C3535       C  0.97661908  0.88557487  0.59437539    -0.01800
C3536       C  0.98357966  0.86344063  0.57282630    -0.09300
C3537       C  0.97860556  0.76681279  0.60539468     0.65000
H3538       H  0.96652662  0.81683822  0.64183246     0.10400
C3539       C  0.97532287  0.92648677  0.58881257     0.63300
H3540       H  0.98870142  0.87597646  0.55358672     0.07800
F3541       F  0.03184288  0.72012956  0.55646248    -0.19700
F3542       F  0.03352525  0.76941767  0.58543231    -0.15900
F3543       F  0.04210803  0.77225133  0.53899897    -0.19400
F3544       F  0.97318263  0.84271012  0.51206485    -0.22800
F3545       F  0.96234154  0.79560760  0.53596040    -0.24300
F3546       F  0.96942481  0.78963859  0.48857554    -0.18300
F3547       F  0.98442027  0.94538739  0.60786872    -0.20700
F3548       F  0.96100824  0.93748463  0.59314529    -0.21900
F3549       F  0.97921053  0.93575086  0.55997951    -0.19100
F3550       F  0.97006412  0.75544896  0.62907947    -0.19200
F3551       F  0.99283408  0.75612967  0.61101494    -0.23000
F3552       F  0.97360448  0.74914519  0.58027668    -0.24600
C3553       C  0.00366079  0.78736576  0.73805664    -0.11400
C3554       C  0.99526199  0.75781600  0.72767248     0.11200
C3555       C  0.98217627  0.76389974  0.71191429    -0.03200
C3556       C  0.97797685  0.79992161  0.70661866    -0.06000
C3557       C  0.98595030  0.82954726  0.71793985    -0.16700
C3558       C  0.99911911  0.82369277  0.73340933     0.02200
C3559       C  0.99993332  0.72050897  0.73488658     0.12100
C3560       C  0.97231050  0.73264246  0.70206410     0.62700
H3561       H  0.96781772  0.80528259  0.69505657     0.12200
C3562       C  0.00784812  0.85537800  0.74570430     0.54900
H3563       H  0.01354880  0.78163007  0.75047658     0.07900
C3564       C  0.01051079  0.70229062  0.71773957    -0.05900
C3565       C  0.01424821  0.66647667  0.72581707    -0.06600
C3566       C  0.00831167  0.64954713  0.75130754    -0.16200
C3567       C  0.99705762  0.66731444  0.76741437    -0.01800
C3568       C  0.99321984  0.70300543  0.75900950    -0.09300
C3569       C  0.01817073  0.72120744  0.69189009     0.65000
H3570       H  0.02263950  0.65223869  0.71342507     0.10400
C3571       C  0.98955692  0.64984499  0.79400400     0.63300
H3572       H  0.98510120  0.71803081  0.77154502     0.07800
F3573       F  0.02018682  0.84357905  0.76077212    -0.19700
F3574       F  0.99927370  0.87510429  0.76523146    -0.15900
F3575       F  0.01226512  0.87792268  0.72258876    -0.19400
F3576       F  0.96705718  0.71396689  0.72663587    -0.22800
F3577       F  0.98001067  0.70866603  0.68428879    -0.24300
F3578       F  0.96035167  0.74511320  0.68612658    -0.18300
F3579       F  0.99956586  0.64436621  0.81642915    -0.20700
F3580       F  0.98347468  0.61669658  0.78588425    -0.21900
F3581       F  0.97846525  0.67163970  0.80513811    -0.19100
F3582       F  0.02828553  0.69857636  0.67850742    -0.19200
F3583       F  0.02554153  0.75183247  0.70184564    -0.23000
F3584       F  0.00805256  0.73175023  0.67070003    -0.24600
C3585       C  0.79815371  0.66187118  0.62541118    -0.11400
C3586       C  0.78513696  0.64183745  0.62414002     0.11200
C3587       C  0.77208515  0.65664099  0.63573893    -0.03200
C3588       C  0.77262149  0.69128558  0.64907474    -0.06000
C3589       C  0.78580009  0.71096256  0.65166065    -0.16700
C3590       C  0.79876307  0.69653347  0.63870706     0.02200
C3591       C  0.78562391  0.60526192  0.61041175     0.12100
C3592       C  0.75786180  0.63508365  0.63562169     0.62700
H3593       H  0.76281416  0.70228107  0.65911921    -0.03800
C3594       C  0.81315878  0.71736833  0.63826204     0.54900
H3595       H  0.80794423  0.64971149  0.61615780     0.07900
C3596       C  0.78472591  0.60096958  0.57927442    -0.05900
C3597       C  0.78537786  0.56549844  0.56770658    -0.06600
C3598       C  0.78727062  0.53471710  0.58613529    -0.16200
C3599       C  0.78864098  0.53905681  0.61714544    -0.01800
C3600       C  0.78767497  0.57460092  0.62893151    -0.09300
C3601       C  0.78337106  0.63367381  0.55835729     0.65000
H3602       H  0.78453354  0.56144136  0.54392633     0.10400
C3603       C  0.79151748  0.50655016  0.63729679     0.63300
H3604       H  0.78863910  0.57886020  0.65264950     0.07800
F3605       F  0.82319943  0.70148433  0.61922999    -0.19700
F3606       F  0.81927187  0.71771238  0.66635895    -0.15900
F3607       F  0.81081389  0.75288475  0.62856640    -0.19400
F3608       F  0.75899881  0.60584680  0.65512676    -0.22800
F3609       F  0.75490363  0.62191669  0.60751390    -0.24300
F3610       F  0.74611781  0.65644850  0.64426302    -0.18300
F3611       F  0.79380302  0.51710100  0.66644009    -0.20700
F3612       F  0.80383544  0.48806261  0.62768762    -0.21900
F3613       F  0.77962027  0.48325818  0.63663714    -0.19100
F3614       F  0.78203960  0.62298656  0.52899471    -0.19200
F3615       F  0.79567528  0.65547047  0.56063628    -0.23000
F3616       F  0.77119477  0.65420087  0.56551946    -0.24600
C3617       C  0.75207522  0.95858251  0.53335050    -0.11400
C3618       C  0.74654647  0.95385583  0.56222861     0.11200
C3619       C  0.73347118  0.97232831  0.57019938    -0.03200
C3620       C  0.72605568  0.99356932  0.54849346    -0.06000
C3621       C  0.73147897  0.99789176  0.51939523    -0.16700
C3622       C  0.74472892  0.97991684  0.51167399     0.02200
C3623       C  0.75487561  0.92995438  0.58373634     0.12100
C3624       C  0.72749417  0.96992524  0.60164740     0.62700
H3625       H  0.71595172  0.00731937  0.55417551     0.12200
C3626       C  0.75079462  0.98177246  0.48029656     0.54900
H3627       H  0.76220729  0.94488566  0.52781595     0.07900
C3628       C  0.75352482  0.89127897  0.58423059    -0.05900
C3629       C  0.76127010  0.87080716  0.60593357    -0.06600
C3630       C  0.77044183  0.88743371  0.62721741    -0.16200
C3631       C  0.77237920  0.92636596  0.62540513    -0.01800
C3632       C  0.76459681  0.94656242  0.60359407    -0.09300
C3633       C  0.74369037  0.87175800  0.56219134     0.65000
H3634       H  0.75985106  0.84139164  0.60684728     0.10400
C3635       C  0.78227196  0.94736875  0.64651593     0.63300
H3636       H  0.76576050  0.97604266  0.60220935     0.07800
F3637       F  0.74021537  0.97069963  0.46030818    -0.19700
F3638       F  0.76282236  0.95920956  0.47675931    -0.15900
F3639       F  0.75507713  0.01721225  0.47370554    -0.19400
F3640       F  0.73750201  0.98468188  0.62123532    -0.22800
F3641       F  0.72493825  0.93378023  0.60933735    -0.24300
F3642       F  0.71449632  0.98896876  0.60467035    -0.18300
F3643       F  0.79629741  0.93329039  0.64541591    -0.20700
F3644       F  0.77686944  0.94498927  0.67518791    -0.21900
F3645       F  0.78317060  0.98418042  0.63916377    -0.19100
F3646       F  0.74411614  0.83410728  0.56588752    -0.19200
F3647       F  0.74809584  0.87965020  0.53347328    -0.23000
F3648       F  0.72939690  0.88311913  0.56587611    -0.24600
C3649       C  0.75615515  0.95434207  0.77313506    -0.11400
C3650       C  0.74813263  0.97494198  0.75257322     0.11200
C3651       C  0.74349444  0.95921263  0.72546763    -0.03200
C3652       C  0.74807300  0.92355499  0.71887056    -0.06000
C3653       C  0.75677480  0.90371592  0.73886231    -0.16700
C3654       C  0.75988400  0.91803927  0.76728353     0.02200
C3655       C  0.74346095  0.01177647  0.76112805     0.12100
C3656       C  0.73421423  0.98045173  0.70328227     0.62700
H3657       H  0.74589959  0.91214056  0.69712907     0.12200
C3658       C  0.76724590  0.89592583  0.79163892     0.54900
H3659       H  0.75918771  0.96644614  0.79421473     0.07900
C3660       C  0.73089474  0.01646301  0.77886612    -0.05900
C3661       C  0.72532673  0.05172741  0.78181677    -0.06600
C3662       C  0.73232524  0.08207401  0.76894510    -0.16200
C3663       C  0.74560934  0.07794986  0.75352662    -0.01800
C3664       C  0.75097964  0.04224798  0.74947534    -0.09300
C3665       C  0.72325388  0.98436432  0.79406271     0.65000
H3666       H  0.71523015  0.05589851  0.79390978     0.10400
C3667       C  0.75363326  0.11085045  0.74086705     0.63300
H3668       H  0.76079733  0.03769143  0.73654910     0.07800
F3669       F  0.75994320  0.90111024  0.81823021    -0.19700
F3670       F  0.78155656  0.90745860  0.79480323    -0.15900
F3671       F  0.76705189  0.85878122  0.78567515    -0.19400
F3672       F  0.74207015  0.00991181  0.69227962    -0.22800
F3673       F  0.72165338  0.99316016  0.71687069    -0.24300
F3674       F  0.73002645  0.95885848  0.67957009    -0.18300
F3675       F  0.75814317  0.13318616  0.76384485    -0.20700
F3676       F  0.74446125  0.13049370  0.72225133    -0.21900
F3677       F  0.76584130  0.10060334  0.72475007    -0.19100
F3678       F  0.71083658  0.99530075  0.80920942    -0.19200
F3679       F  0.73259906  0.96824793  0.81440407    -0.23000
F3680       F  0.71913144  0.95854547  0.77332405    -0.24600
C3681       C  0.81721479  0.87469538  0.83616427    -0.11400
C3682       C  0.80644599  0.86244800  0.85600786     0.11200
C3683       C  0.79502829  0.83960276  0.84586881    -0.03200
C3684       C  0.79528069  0.82796337  0.81624530    -0.06000
C3685       C  0.80568749  0.84126121  0.79587262    -0.16700
C3686       C  0.81685458  0.86527288  0.80587987     0.02200
C3687       C  0.80649701  0.87721459  0.88652827     0.12100
C3688       C  0.78200932  0.83008098  0.86546781     0.62700
H3689       H  0.78663999  0.81028985  0.80820789     0.12200
C3690       C  0.82839574  0.88069000  0.78507741     0.54900
H3691       H  0.82558605  0.89297653  0.84447611     0.07900
C3692       C  0.81373090  0.85953324  0.91030617    -0.05900
C3693       C  0.81230538  0.87420539  0.93900388    -0.06600
C3694       C  0.80404556  0.90604140  0.94442639    -0.16200
C3695       C  0.79732241  0.92456087  0.91995949    -0.01800
C3696       C  0.79880971  0.90965428  0.89142029    -0.09300
C3697       C  0.82299882  0.82561469  0.90523652     0.65000
H3698       H  0.81757631  0.86059941  0.95755332     0.10400
C3699       C  0.78821957  0.95916068  0.92342789     0.63300
H3700       H  0.79366398  0.92275024  0.87246700     0.07800
F3701       F  0.83911948  0.89977066  0.80023704    -0.19700
F3702       F  0.82205264  0.90451326  0.76488694    -0.15900
F3703       F  0.83507735  0.85239798  0.77013191    -0.19400
F3704       F  0.77433758  0.86171624  0.87172383    -0.22800
F3705       F  0.78657730  0.81421327  0.89180331    -0.24300
F3706       F  0.77254520  0.80588178  0.85171514    -0.18300
F3707       F  0.79693948  0.98734967  0.93365681    -0.20700
F3708       F  0.77689043  0.95289502  0.94309590    -0.21900
F3709       F  0.78207554  0.97054489  0.89680746    -0.19100
F3710       F  0.82861599  0.81180682  0.93157828    -0.19200
F3711       F  0.83456912  0.83431279  0.88671710    -0.23000
F3712       F  0.81476274  0.79836001  0.89215843    -0.24600
C3713       C  0.85506011  0.86643754  0.66063482    -0.11400
C3714       C  0.86450714  0.86196733  0.68490853     0.11200
C3715       C  0.85984525  0.84125529  0.70990448    -0.03200
C3716       C  0.84561704  0.82647013  0.70992115    -0.06000
C3717       C  0.83576643  0.83304258  0.68650559    -0.16700
C3718       C  0.84081482  0.85172429  0.66073044     0.02200
C3719       C  0.87929731  0.87899163  0.68352478     0.12100
C3720       C  0.86976077  0.83537922  0.73665972     0.62700
H3721       H  0.84183835  0.81101884  0.72900911     0.12200
C3722       C  0.83148547  0.85504229  0.63299251     0.54900
H3723       H  0.85887661  0.88213249  0.64166509     0.07900
C3724       C  0.89095140  0.86243197  0.66803259    -0.05900
C3725       C  0.90501623  0.87765997  0.67060096    -0.06600
C3726       C  0.90788634  0.90875730  0.68825991    -0.16200
C3727       C  0.89584141  0.92708375  0.70169157    -0.01800
C3728       C  0.88172632  0.91182308  0.69880141    -0.09300
C3729       C  0.88856284  0.82841825  0.64927392     0.65000
H3730       H  0.91401459  0.86421334  0.65951631     0.10400
C3731       C  0.89766955  0.96196777  0.71957657     0.63300
H3732       H  0.87246814  0.92454775  0.70962721     0.07800
F3733       F  0.82505265  0.82164530  0.62682793    -0.19700
F3734       F  0.83976807  0.86515812  0.60851772    -0.15900
F3735       F  0.82075631  0.88116072  0.63699394    -0.19400
F3736       F  0.87325899  0.86866912  0.74931499    -0.22800
F3737       F  0.88247972  0.81805265  0.72793919    -0.24300
F3738       F  0.86315902  0.81399369  0.75834990    -0.18300
F3739       F  0.88433605  0.97728955  0.72706361    -0.20700
F3740       F  0.90532463  0.98768193  0.70305537    -0.21900
F3741       F  0.90506692  0.95444742  0.74571500    -0.19100
F3742       F  0.90149708  0.81546292  0.63729992    -0.19200
F3743       F  0.87922410  0.83652260  0.62601364    -0.23000
F3744       F  0.88250619  0.80074619  0.66640346    -0.24600
C3745       C  0.73951592  0.63574494  0.83387583    -0.11400
C3746       C  0.73780640  0.67386182  0.83412067     0.11200
C3747       C  0.72796973  0.68961420  0.85469423    -0.03200
C3748       C  0.72111885  0.66681188  0.87606799    -0.06000
C3749       C  0.72328818  0.62848881  0.87695186    -0.16700
C3750       C  0.73229891  0.61256662  0.85447167     0.02200
C3751       C  0.74585489  0.69616788  0.81128965     0.12100
C3752       C  0.72450311  0.73028547  0.85358195     0.62700
H3753       H  0.71405189  0.67911018  0.89250506     0.12200
C3754       C  0.73436408  0.57142230  0.85153706     0.54900
H3755       H  0.74671428  0.62425292  0.81724869     0.07900
C3756       C  0.76054506  0.70772927  0.81520385    -0.05900
C3757       C  0.76744953  0.72785511  0.79221360    -0.06600
C3758       C  0.76022713  0.73659279  0.76548720    -0.16200
C3759       C  0.74559813  0.72443183  0.76147864    -0.01800
C3760       C  0.73871420  0.70437279  0.78449164    -0.09300
C3761       C  0.76897006  0.69834712  0.84332668     0.65000
H3762       H  0.77862747  0.73704051  0.79495951     0.10400
C3763       C  0.73739828  0.73132796  0.73267598     0.63300
H3764       H  0.72760629  0.69469667  0.78174499     0.07800
F3765       F  0.74268516  0.55820604  0.87489046    -0.19700
F3766       F  0.74148654  0.56235392  0.82542599    -0.15900
F3767       F  0.72088336  0.55419793  0.85124418    -0.19400
F3768       F  0.71768877  0.73858487  0.82696974    -0.22800
F3769       F  0.73719115  0.75067256  0.85580099    -0.24300
F3770       F  0.71527079  0.74060643  0.87640774    -0.18300
F3771       F  0.74566556  0.71933495  0.70889118    -0.20700
F3772       F  0.73457853  0.76832650  0.72946741    -0.21900
F3773       F  0.72415039  0.71297179  0.73203528    -0.19100
F3774       F  0.78285346  0.71353375  0.84317883    -0.19200
F3775       F  0.77039839  0.66077336  0.84586956    -0.23000
F3776       F  0.76165203  0.71140826  0.86796767    -0.24600
loop_ 
_geom_bond_atom_site_label_1 
_geom_bond_atom_site_label_2 
_geom_bond_distance 
_geom_bond_site_symmetry_2 
_ccdc_geom_bond_type 
O1           C16   1.270       .  A
O1           Al9   1.926       .  S
C2           O12   1.264       .  A
C2            O3   1.258       .  A
C2         C3685   1.482       .  S
O3           Al5   1.880       .  S
O4            C6   1.264       .  A
O4           Al5   1.931       .  S
Al5          O13   1.946       .  S
Al5          O15   1.878       .  S
Al5          O14   1.782       .  S
C6           O19   1.259       .  A
C6         C3758   1.497       .  S
O7           C17   1.264       .  A
O7           Al9   1.920       .  S
O8           C21   1.262       .  A
O8          Al18   1.929       .  S
Al9          O22   1.923       .  S
Al9          O19   1.908       .  S
Al9          O14   1.784       .  S
O10          C17   1.256       .  A
O10         Al18   1.856       .  S
O11          C20   1.260       .  A
O11         Al18   1.892       .  S
O12         Al18   1.937       .  S
O13          C20   1.269       .  A
O14         Al18   1.774       .  S
O15          C16   1.260       .  A
C16        C3589   1.484       .  S
C17        C3653   1.458       .  S
C20        C3717   1.490       .  S
C21          O22   1.266       .  A
C21        C3630   1.518       .  S
O23          C38   1.266   1_565  A
O23         Al31   1.919       .  S
C24          O34   1.261       .  A
C24          O25   1.258       .  A
C24        C3493   1.466       .  S
O25         Al27   1.888       .  S
O26          C28   1.268       .  A
O26         Al27   1.934       .  S
Al27         O35   1.955       .  S
Al27         O37   1.883       .  S
Al27         O36   1.773       .  S
C28          O41   1.262       .  A
C28        C3461   1.511   1_565  S
O29          C39   1.265       .  A
O29         Al31   1.938       .  S
O30          C43   1.264       .  A
O30         Al40   1.918       .  S
Al31         O44   1.923       .  S
Al31         O41   1.913       .  S
Al31         O36   1.787       .  S
O32          C39   1.253       .  A
O32         Al40   1.851       .  S
O33          C42   1.260       .  A
O33         Al40   1.877       .  S
O34         Al40   1.930       .  S
O35          C42   1.270       .  A
O36         Al40   1.767       .  S
O37          C38   1.261   1_565  A
C38        C3429   1.466       .  S
C39        C3557   1.457       .  S
C42        C3726   1.502       .  S
C43          O44   1.264       .  A
C43        C3534   1.505       .  S
O45          C60   1.264   1_565  A
O45         Al53   1.898       .  S
C46          O56   1.268       .  A
C46          O47   1.256       .  A
C46        C3694   1.490       .  S
O47         Al49   1.878   1_556  S
O48          C50   1.269   1_544  A
O48         Al49   1.951   1_545  S
Al49         O57   1.952       .  S
Al49         O59   1.880       .  S
Al49         O58   1.778       .  S
C50          O63   1.258   1_556  A
C50        C3301   1.504   1_565  S
O51          C61   1.261       .  A
O51         Al53   1.914       .  S
O52          C65   1.268       .  A
O52         Al62   1.939       .  S
Al53         O66   1.899       .  S
Al53         O63   1.894       .  S
Al53         O58   1.777       .  S
O54          C61   1.253       .  A
O54         Al62   1.857       .  S
O55          C64   1.260       .  A
O55         Al62   1.886       .  S
O56         Al62   1.934   1_556  S
O57          C64   1.269       .  A
O58         Al62   1.770       .  S
O59          C60   1.260   1_565  A
C60        C3278   1.467       .  S
C61        C3397   1.455       .  S
C64        C3342   1.503       .  S
C65          O66   1.260       .  A
C65        C3374   1.495       .  S
O67          C82   1.261       .  A
O67         Al75   1.898       .  S
C68          O78   1.259       .  A
C68          O69   1.256       .  A
C68        C3502   1.486       .  S
O69         Al71   1.887   1_556  S
O70          C72   1.266       .  A
O70         Al71   1.932   1_556  S
Al71         O79   1.921       .  S
Al71         O81   1.884       .  S
Al71         O80   1.793       .  S
C72          O85   1.263   1_556  A
C72        C3246   1.512       .  S
O73          C83   1.258       .  A
O73         Al75   1.896       .  S
O74          C87   1.262       .  A
O74         Al84   1.911       .  S
Al75         O88   1.922       .  S
Al75         O85   1.920       .  S
Al75         O80   1.793       .  S
O76          C83   1.256       .  A
O76         Al84   1.878       .  S
O77          C86   1.259       .  A
O77         Al84   1.892       .  S
O78         Al84   1.904   1_556  S
O79          C86   1.266       .  A
O80         Al84   1.791       .  S
O81          C82   1.258       .  A
C82        C3150   1.461       .  S
C83        C3205   1.452       .  S
C86        C3333   1.479       .  S
C87          O88   1.263       .  A
C87        C3173   1.495       .  S
O89         C104   1.266       .  A
O89         Al97   1.917       .  S
C90         O100   1.263       .  A
C90          O91   1.269       .  A
C90        C3054   1.503       .  S
O91         Al93   1.950       .  S
O92          C94   1.253       .  A
O92         Al93   1.846       .  S
Al93        O101   1.893       .  S
Al93        O103   1.944       .  S
Al93        O102   1.770       .  S
C94         O107   1.264       .  A
C94        C3566   1.471       .  S
O95         C105   1.260       .  A
O95         Al97   1.914       .  S
O96         C109   1.262       .  A
O96        Al106   1.881       .  S
Al97        O110   1.931       .  S
Al97        O107   1.929       .  S
Al97        O102   1.780       .  S
O98         C105   1.262       .  A
O98        Al106   1.934       .  S
O99         C108   1.268       .  A
O99        Al106   1.943       .  S
O100       Al106   1.887       .  S
O101        C108   1.257       .  A
O102       Al106   1.782       .  S
O103        C104   1.266       .  A
C104       C3237   1.522       .  S
C105       C3118   1.487       .  S
C108       C3077   1.504       .  S
C109        O110   1.272       .  A
C109       C3013   1.492       .  S
O111        C126   1.262       .  A
O111       Al119   1.903       .  S
C112        O122   1.258       .  A
C112        O113   1.270       .  A
C112       C2885   1.483       .  S
O113       Al115   1.945       .  S
O114        C116   1.252       .  A
O114       Al115   1.831       .  S
Al115       O123   1.879       .  S
Al115       O125   1.936       .  S
Al115       O124   1.769       .  S
C116        O129   1.269       .  A
C116       C2917   1.473       .  S
O117        C127   1.257       .  A
O117       Al119   1.902       .  S
O118        C131   1.257       .  A
O118       Al128   1.863       .  S
Al119       O132   1.949       .  S
Al119       O129   1.947       .  S
Al119       O124   1.776       .  S
O120        C127   1.270       .  A
O120       Al128   1.972       .  S
O121        C130   1.273       .  A
O121       Al128   1.966       .  S
O122       Al128   1.871       .  S
O123        C130   1.255       .  A
O124       Al128   1.773       .  S
O125        C126   1.263       .  A
C126       C2958   1.508       .  S
C127       C2981   1.500       .  S
C130       C3086   1.496       .  S
C131        O132   1.275       .  A
C131       C2862   1.481       .  S
O133        C148   1.266       .  A
O133       Al141   1.927       .  S
C134        O144   1.259       .  A
C134        O135   1.262       .  A
C134       C3045   1.478       .  S
O135       Al137   1.936       .  S
O136        C138   1.252       .  A
O136       Al137   1.859       .  S
Al137       O145   1.864       .  S
Al137       O147   1.946       .  S
Al137       O146   1.760       .  S
C138        O151   1.269       .  A
C138       C2821   1.466       .  S
O139        C149   1.266       .  A
O139       Al141   1.913       .  S
O140        C153   1.261       .  A
O140       Al150   1.883       .  S
Al141       O154   1.935       .  S
Al141       O151   1.961       .  S
Al141       O146   1.785       .  S
O142        C149   1.266       .  A
O142       Al150   1.934       .  S
O143        C152   1.273       .  A
O143       Al150   1.956       .  S
O144       Al150   1.896       .  S
O145        C152   1.255       .  A
O146       Al150   1.771       .  S
O147        C148   1.268       .  A
C148       C2789   1.500       .  S
C149       C3525   1.496       .  S
C152       C2757   1.493       .  S
C153        O154   1.270       .  A
C153       C2725   1.472       .  S
O155        C170   1.264       .  A
O155       Al163   1.914       .  S
C156        O166   1.256       .  A
C156        O157   1.269       .  A
C156       C2894   1.484       .  S
O157       Al159   1.940       .  S
O158        C160   1.252       .  A
O158       Al159   1.849       .  S
Al159       O167   1.885       .  S
Al159       O169   1.940       .  S
Al159       O168   1.771       .  S
C160        O173   1.266       .  A
C160       C2693   1.465       .  S
O161        C171   1.263       .  A
O161       Al163   1.914       .  S
O162        C175   1.258       .  A
O162       Al172   1.875       .  S
Al163       O176   1.938       .  S
Al163       O173   1.933       .  S
Al163       O168   1.777       .  S
O164        C171   1.264       .  A
O164       Al172   1.940       .  S
O165        C174   1.266       .  A
O165       Al172   1.933       .  S
O166       Al172   1.870       .  S
O167        C174   1.258       .  A
O168       Al172   1.775       .  S
O169        C170   1.268       .  A
C170       C2661   1.508       .  S
C171       C2629   1.497       .  S
C174       C2766   1.486       .  S
C175        O176   1.272       .  A
C175       C2606   1.485       .  S
O177        C192   1.264       .  A
O177       Al185   1.911       .  S
C178        O188   1.257       .  A
C178        O179   1.269       .  A
C178       C2501   1.483       .  S
O179       Al181   1.947       .  S
O180        C182   1.253       .  A
O180       Al181   1.859       .  S
Al181       O189   1.883       .  S
Al181       O191   1.946       .  S
Al181       O190   1.769       .  S
C182        O195   1.261       .  A
C182       C3662   1.456       .  S
O183        C193   1.264       .  A
O183       Al185   1.904       .  S
O184        C197   1.262       .  A
O184       Al194   1.887       .  S
Al185       O198   1.920       .  S
Al185       O195   1.925       .  S
Al185       O190   1.783       .  S
O186        C193   1.266       .  A
O186       Al194   1.938       .  S
O187        C196   1.269       .  A
O187       Al194   1.949       .  S
O188       Al194   1.879       .  S
O189        C196   1.256       .  A
O190       Al194   1.775       .  S
O191        C192   1.271       .  A
C192       C3310   1.501       .  S
C193       C2565   1.504       .  S
C196       C2542   1.493       .  S
C197        O198   1.266       .  A
C197       C2478   1.474       .  S
O199        C214   1.259       .  A
O199       Al207   1.903       .  S
C200        O210   1.261       .  A
C200        O201   1.264       .  A
C200       C2405   1.477       .  S
O201       Al203   1.935       .  S
O202        C204   1.255       .  A
O202       Al203   1.853       .  S
Al203       O211   1.883       .  S
Al203       O213   1.928       .  S
Al203       O212   1.772       .  S
C204        O217   1.263       .  A
C204       C2341   1.465       .  S
O205        C215   1.256       .  A
O205       Al207   1.891       .  S
O206        C219   1.264   1_545  A
O206       Al216   1.901       .  S
Al207       O220   1.913       .  S
Al207       O217   1.921       .  S
Al207       O212   1.780       .  S
O208        C215   1.267       .  A
O208       Al216   1.939       .  S
O209        C218   1.272       .  A
O209       Al216   1.955       .  S
O210       Al216   1.896       .  S
O211        C218   1.256       .  A
O212       Al216   1.778       .  S
O213        C214   1.266       .  A
C214       C2373   1.506       .  S
C215       C2437   1.490   1_545  S
C218       C2533   1.502       .  S
C219        O220   1.267   1_565  A
C219       C2309   1.475       .  S
O221        C236   1.263       .  A
O221       Al229   1.923       .  S
C222        O232   1.257       .  A
C222        O223   1.271       .  A
C222       C2510   1.479       .  S
O223       Al225   1.960       .  S
O224        C226   1.253       .  A
O224       Al225   1.864       .  S
Al225       O233   1.882       .  S
Al225       O235   1.941       .  S
Al225       O234   1.780       .  S
C226        O239   1.263       .  A
C226       C2286   1.467       .  S
O227        C237   1.263       .  A
O227       Al229   1.919       .  S
O228        C241   1.265   1_545  A
O228       Al238   1.898       .  S
Al229       O242   1.919       .  S
Al229       O239   1.933       .  S
Al229       O234   1.790       .  S
O230        C237   1.265       .  A
O230       Al238   1.937       .  S
O231        C240   1.267       .  A
O231       Al238   1.963       .  S
O232       Al238   1.874       .  S
O233        C240   1.255       .  A
O234       Al238   1.795       .  S
O235        C236   1.268       .  A
C236       C2254   1.522       .  S
C237       C3621   1.502   1_545  S
C240       C2213   1.513       .  S
C241        O242   1.267   1_565  A
C241       C2190   1.474       .  S
O243        C258   1.266       .  A
O243       Al251   1.920       .  S
C244        O254   1.260       .  A
C244        O245   1.264       .  A
C244       C2414   1.496       .  S
O245       Al247   1.933       .  S
O246        C248   1.251       .  A
O246       Al247   1.863       .  S
Al247       O255   1.891       .  S
Al247       O257   1.963       .  S
Al247       O256   1.758       .  S
C248        O261   1.262       .  A
C248       C2149   1.464       .  S
O249        C259   1.265       .  A
O249       Al251   1.920       .  S
O250        C263   1.260       .  A
O250       Al260   1.871       .  S
Al251       O264   1.918       .  S
Al251       O261   1.937       .  S
Al251       O256   1.788       .  S
O252        C259   1.269       .  A
O252       Al260   1.951       .  S
O253        C262   1.272       .  A
O253       Al260   1.965       .  S
O254       Al260   1.888       .  S
O255        C262   1.263       .  A
O256       Al260   1.772       .  S
O257        C258   1.272       .  A
C258       C2117   1.512       .  S
C259       C2094   1.495       .  S
C262       C2222   1.511       .  S
C263        O264   1.268       .  A
C263       C2053   1.475       .  S
O265        C280   1.264       .  A
O265       Al273   1.911       .  S
C266        O276   1.261       .  A
C266        O267   1.263       .  A
C266       C1925   1.486       .  S
O267       Al269   1.932       .  S
O268        C270   1.250       .  A
O268       Al269   1.858       .  S
Al269       O277   1.877       .  S
Al269       O279   1.947       .  S
Al269       O278   1.756       .  S
C270        O283   1.269       .  A
C270       C2021   1.465       .  S
O271        C281   1.265       .  A
O271       Al273   1.906       .  S
O272        C285   1.262       .  A
O272       Al282   1.884       .  S
Al273       O286   1.947       .  S
Al273       O283   1.963       .  S
Al273       O278   1.781       .  S
O274        C281   1.268       .  A
O274       Al282   1.945       .  S
O275        C284   1.274       .  A
O275       Al282   1.966       .  S
O276       Al282   1.888       .  S
O277        C284   1.256       .  A
O278       Al282   1.765       .  S
O279        C280   1.269       .  A
C280       C1989   1.499       .  S
C281       C3365   1.505       .  S
C284       C1957   1.503       .  S
C285        O286   1.274       .  A
C285       C2181   1.495       .  S
O287        C302   1.260       .  A
O287       Al295   1.906       .  S
C288        O298   1.258       .  A
C288        O289   1.268       .  A
C288       C1902   1.476       .  S
O289       Al291   1.951       .  S
O290        C292   1.247       .  A
O290       Al291   1.847       .  S
Al291       O299   1.866       .  S
Al291       O301   1.940       .  S
Al291       O300   1.762       .  S
C292        O305   1.270       .  A
C292       C1797   1.473       .  S
O293        C303   1.265       .  A
O293       Al295   1.916       .  S
O294        C307   1.264       .  A
O294       Al304   1.883       .  S
Al295       O308   1.926       .  S
Al295       O305   1.951       .  S
Al295       O300   1.778       .  S
O296        C303   1.266       .  A
O296       Al304   1.939       .  S
O297        C306   1.271       .  A
O297       Al304   1.966       .  S
O298       Al304   1.871       .  S
O299        C306   1.252       .  A
O300       Al304   1.773       .  S
O301        C302   1.266       .  A
C302       C1838   1.489       .  S
C303       C1870   1.503       .  S
C306       C1966   1.492       .  S
C307        O308   1.268       .  A
C307       C2062   1.459       .  S
O309        C324   1.262       .  A
O309       Al317   1.902       .  S
C310        O320   1.257       .  A
C310        O311   1.266   1_554  A
C310       C1934   1.489       .  S
O311       Al313   1.944       .  S
O312        C314   1.251       .  A
O312       Al313   1.855       .  S
Al313       O321   1.868       .  S
Al313       O323   1.962       .  S
Al313       O322   1.763       .  S
C314        O327   1.264       .  A
C314       C3406   1.456       .  S
O315        C325   1.261       .  A
O315       Al317   1.899       .  S
O316        C329   1.261       .  A
O316       Al326   1.884       .  S
Al317       O330   1.934       .  S
Al317       O327   1.941       .  S
Al317       O322   1.780       .  S
O318        C325   1.272       .  A
O318       Al326   1.947       .  S
O319        C328   1.272       .  A
O319       Al326   1.963       .  S
O320       Al326   1.870   1_554  S
O321        C328   1.257       .  A
O322       Al326   1.771       .  S
O323        C324   1.273       .  A
C324       C3749   1.512       .  S
C325       C1765   1.501   1_556  S
C328       C1733   1.491       .  S
C329        O330   1.268       .  A
C329       C2469   1.469       .  S
O331        C346   1.264       .  A
O331       Al339   1.913       .  S
C332        O342   1.260       .  A
C332        O333   1.263   1_554  A
C332       C1893   1.497       .  S
O333       Al335   1.938       .  S
O334        C336   1.252       .  A
O334       Al335   1.859       .  S
Al335       O343   1.871       .  S
Al335       O345   1.950       .  S
Al335       O344   1.760       .  S
C336        O349   1.266       .  A
C336       C1669   1.465       .  S
O337        C347   1.262   1_556  A
O337       Al339   1.893       .  S
O338        C351   1.263       .  A
O338       Al348   1.891       .  S
Al339       O352   1.934       .  S
Al339       O349   1.952       .  S
Al339       O344   1.784       .  S
O340        C347   1.270   1_556  A
O340       Al348   1.946       .  S
O341        C350   1.275       .  A
O341       Al348   1.969       .  S
O342       Al348   1.886   1_554  S
O343        C350   1.256       .  A
O344       Al348   1.773       .  S
O345        C346   1.271       .  A
C346       C1701   1.505       .  S
C347       C1637   1.487       .  S
C350       C1742   1.501       .  S
C351        O352   1.267       .  A
C351       C2318   1.480       .  S
O353        C368   1.271       .  A
O353       Al361   1.934       .  S
C354        O364   1.273       .  A
C354        O355   1.263       .  A
C354       C1582   1.484       .  S
O355       Al357   1.888       .  S
O356        C358   1.268       .  A
O356       Al357   1.946       .  S
Al357       O365   1.965       .  S
Al357       O367   1.892       .  S
Al357       O366   1.786       .  S
C358        O371   1.261       .  A
C358       C2670   1.511       .  S
O359        C369   1.266       .  A
O359       Al361   1.942       .  S
O360        C373   1.262       .  A
O360       Al370   1.923       .  S
Al361       O374   1.905       .  S
Al361       O371   1.913       .  S
Al361       O366   1.779       .  S
O362        C369   1.249       .  A
O362       Al370   1.839       .  S
O363        C372   1.252       .  A
O363       Al370   1.874       .  S
O364       Al370   1.961       .  S
O365        C372   1.266       .  A
O366       Al370   1.764       .  S
O367        C368   1.266       .  A
C368       C1477   1.467       .  S
C369       C1509   1.466       .  S
C372       C1605   1.502       .  S
C373        O374   1.262       .  A
C373       C1550   1.499       .  S
O375        C390   1.264   1_565  A
O375       Al383   1.898       .  S
C376        O386   1.258       .  A
C376        O377   1.259       .  A
C376       C1445   1.460       .  S
O377       Al379   1.896       .  S
O378        C380   1.263       .  A
O378       Al379   1.921       .  S
Al379       O387   1.923       .  S
Al379       O389   1.897       .  S
Al379       O388   1.788       .  S
C380        O393   1.262       .  A
C380       C2126   1.506   1_565  S
O381        C391   1.258       .  A
O381       Al383   1.892       .  S
O382        C395   1.261       .  A
O382       Al392   1.897       .  S
Al383       O396   1.944       .  S
Al383       O393   1.934       .  S
Al383       O388   1.791       .  S
O384        C391   1.256       .  A
O384       Al392   1.878       .  S
O385        C394   1.255       .  A
O385       Al392   1.879       .  S
O386       Al392   1.890       .  S
O387        C394   1.264       .  A
O388       Al392   1.788       .  S
O389        C390   1.263   1_565  A
C390       C1413   1.473       .  S
C391       C1806   1.445       .  S
C394       C1614   1.475       .  S
C395        O396   1.266       .  A
C395       C1646   1.492       .  S
O397        C412   1.274       .  A
O397       Al405   1.942       .  S
C398        O408   1.276       .  A
C398        O399   1.262       .  A
C398       C1573   1.490       .  S
O399       Al401   1.883       .  S
O400        C402   1.263       .  A
O400       Al401   1.936       .  S
Al401       O409   1.955       .  S
Al401       O411   1.886       .  S
Al401       O410   1.786       .  S
C402        O415   1.264       .  A
C402       C1349   1.503       .  S
O403        C413   1.269       .  A
O403       Al405   1.953       .  S
O404        C417   1.265       .  A
O404       Al414   1.937       .  S
Al405       O418   1.906       .  S
Al405       O415   1.923       .  S
Al405       O410   1.783       .  S
O406        C413   1.249       .  A
O406       Al414   1.841       .  S
O407        C416   1.253       .  A
O407       Al414   1.879       .  S
O408       Al414   1.971       .  S
O409        C416   1.264       .  A
O410       Al414   1.764       .  S
O411        C412   1.265       .  A
C412       C1317   1.476   1_565  S
C413       C2702   1.473       .  S
C416       C1390   1.499       .  S
C417        O418   1.262       .  A
C417       C2990   1.505       .  S
O419        C434   1.263       .  A
O419       Al427   1.906       .  S
C420        O430   1.270       .  A
C420        O421   1.255       .  A
C420       C1454   1.487       .  S
O421       Al423   1.867       .  S
O422        C424   1.271       .  A
O422       Al423   1.957       .  S
Al423       O431   1.952       .  S
Al423       O433   1.880       .  S
Al423       O432   1.774       .  S
C424        O437   1.257       .  A
C424       C1829   1.505       .  S
O425        C435   1.261       .  A
O425       Al427   1.907       .  S
O426        C439   1.269       .  A
O426       Al436   1.954       .  S
Al427       O440   1.905       .  S
Al427       O437   1.888       .  S
Al427       O432   1.778       .  S
O428        C435   1.251       .  A
O428       Al436   1.858       .  S
O429        C438   1.258       .  A
O429       Al436   1.889       .  S
O430       Al436   1.949       .  S
O431        C438   1.270       .  A
O432       Al436   1.767       .  S
O433        C434   1.261       .  A
C434       C1285   1.454       .  S
C435       C2158   1.450       .  S
C438       C1381   1.486       .  S
C439        O440   1.265       .  A
C439       C2446   1.514       .  S
O441        C456   1.263       .  A
O441       Al449   1.905       .  S
C442        O452   1.264       .  A
C442        O443   1.259       .  A
C442       C1221   1.484       .  S
O443       Al445   1.874       .  S
O444        C446   1.269       .  A
O444       Al445   1.955       .  S
Al445       O453   1.958       .  S
Al445       O455   1.876       .  S
Al445       O454   1.775       .  S
C446        O459   1.260       .  A
C446       C2245   1.497       .  S
O447        C457   1.264       .  A
O447       Al449   1.916       .  S
O448        C461   1.263       .  A
O448       Al458   1.929       .  S
Al449       O462   1.911       .  S
Al449       O459   1.900       .  S
Al449       O454   1.780       .  S
O450        C457   1.254       .  A
O450       Al458   1.855       .  S
O451        C460   1.257       .  A
O451       Al458   1.882       .  S
O452       Al458   1.931       .  S
O453        C460   1.272       .  A
O454       Al458   1.770       .  S
O455        C456   1.259       .  A
C456       C3269   1.449       .  S
C457       C2030   1.457       .  S
C460       C1253   1.488       .  S
C461        O462   1.264       .  A
C461       C1774   1.506       .  S
O463        C478   1.272       .  A
O463       Al471   1.927       .  S
C464        O474   1.266       .  A
C464        O465   1.261       .  A
C464       C1125   1.481       .  S
O465       Al467   1.899       .  S
O466        C468   1.267       .  A
O466       Al467   1.939       .  S
Al467       O475   1.965       .  S
Al467       O477   1.877       .  S
Al467       O476   1.773       .  S
C468        O481   1.262       .  A
C468       C2798   1.515       .  S
O469        C479   1.267       .  A
O469       Al471   1.956       .  S
O470        C483   1.267       .  A
O470       Al480   1.953       .  S
Al471       O484   1.922       .  S
Al471       O481   1.916       .  S
Al471       O476   1.783       .  S
O472        C479   1.250       .  A
O472       Al480   1.835       .  S
O473        C482   1.263       .  A
O473       Al480   1.888       .  S
O474       Al480   1.939       .  S
O475        C482   1.271       .  A
O476       Al480   1.756       .  S
O477        C478   1.265       .  A
C478       C3141   1.471       .  S
C479       C1157   1.484       .  S
C482       C1262   1.507       .  S
C483        O484   1.266       .  A
C483       C1189   1.523       .  S
O485        C500   1.270       .  A
O485       Al493   1.910       .  S
C486        O496   1.262       .  A
C486        O487   1.260       .  A
C486       C1230   1.475       .  S
O487       Al489   1.897       .  S
O488        C490   1.256       .  A
O488       Al489   1.912       .  S
Al489       O497   1.919       .  S
Al489       O499   1.888       .  S
Al489       O498   1.799       .  S
C490        O503   1.251       .  A
C490       C1998   1.507       .  S
O491        C501   1.263       .  A
O491       Al493   1.919       .  S
O492        C505   1.263       .  A
O492       Al502   1.929       .  S
Al493       O506   1.918       .  S
Al493       O503   1.903       .  S
Al493       O498   1.798       .  S
O494        C501   1.255       .  A
O494       Al502   1.864       .  S
O495        C504   1.247       .  A
O495       Al502   1.861       .  S
O496       Al502   1.904       .  S
O497        C504   1.259       .  A
O498       Al502   1.800       .  S
O499        C500   1.266       .  A
C500       C3598   1.469       .  S
C501       C2277   1.459       .  S
C504       C1093   1.477       .  S
C505        O506   1.261       .  A
C505       C2574   1.492       .  S
O507        C522   1.264       .  A
O507       Al515   1.912       .  S
C508        O518   1.264       .  A
C508        O509   1.262       .  A
C508       C1134   1.496       .  S
O509       Al511   1.889       .  S
O510        C512   1.262       .  A
O510       Al511   1.934       .  S
Al511       O519   1.948       .  S
Al511       O521   1.881       .  S
Al511       O520   1.779       .  S
C512        O525   1.262       .  A
C512       C1070   1.507       .  S
O513        C523   1.264       .  A
O513       Al515   1.916       .  S
O514        C527   1.261       .  A
O514       Al524   1.929       .  S
Al515       O528   1.913       .  S
Al515       O525   1.908       .  S
Al515       O520   1.779       .  S
O516        C523   1.255       .  A
O516       Al524   1.850       .  S
O517        C526   1.260       .  A
O517       Al524   1.882       .  S
O518       Al524   1.935       .  S
O519        C526   1.267       .  A
O520       Al524   1.773       .  S
O521        C522   1.265       .  A
C522       C3438   1.489       .  S
C523       C2830   1.453       .  S
C526       C1102   1.498       .  S
C527        O528   1.264       .  A
C527       C3109   1.501       .  S
O529        C544   1.268       .  A
O529       Al537   1.921       .  S
C530        O540   1.255       .  A
C530        O531   1.258       .  A
C530       C1006   1.471       .  S
O531       Al533   1.914       .  S
O532        C534   1.259       .  A
O532       Al533   1.886       .  S
Al533       O541   1.881       .  S
Al533       O543   1.923       .  S
Al533       O542   1.777       .  S
C534        O547   1.257       .  A
C534       C1166   1.471   1_455  S
O535        C545   1.262       .  A
O535       Al537   1.896       .  S
O536        C549   1.260   1_545  A
O536       Al546   1.903       .  S
Al537       O550   1.897       .  S
Al537       O547   1.905       .  S
Al537       O542   1.789       .  S
O538        C545   1.268   1_565  A
O538       Al546   1.937   1_565  S
O539        C548   1.269       .  A
O539       Al546   1.938       .  S
O540       Al546   1.884       .  S
O541        C548   1.257       .  A
O542       Al546   1.790       .  S
O543        C544   1.262       .  A
C544       C1061   1.510       .  S
C545       C3182   1.492   1_545  S
C548       C1038   1.500       .  S
C549        O550   1.257   1_565  A
C549       C2734   1.481       .  S
O551        C566   1.267       .  A
O551       Al559   1.931       .  S
C552        O562   1.254       .  A
C552        O553   1.264       .  A
C552        C974   1.487       .  S
O553       Al555   1.941       .  S
O554        C556   1.257       .  A
O554       Al555   1.851       .  S
Al555       O563   1.887       .  S
Al555       O565   1.918       .  S
Al555       O564   1.778       .  S
C556        O569   1.265       .  A
C556       C1518   1.451       .  S
O557        C567   1.257       .  A
O557       Al559   1.898       .  S
O558        C571   1.259       .  A
O558       Al568   1.876       .  S
Al559       O572   1.921       .  S
Al559       O569   1.913       .  S
Al559       O564   1.789       .  S
O560        C567   1.260       .  A
O560       Al568   1.915       .  S
O561        C570   1.270       .  A
O561       Al568   1.935       .  S
O562       Al568   1.880       .  S
O563        C570   1.260       .  A
O564       Al568   1.778       .  S
O565        C566   1.259       .  A
C566       C1358   1.518       .  S
C567        C933   1.484       .  S
C570       C1029   1.480       .  S
C571        O572   1.267       .  A
C571       C2597   1.474       .  S
O573        C588   1.260       .  A
O573       Al581   1.914       .  S
C574        O584   1.260       .  A
C574        O575   1.265   1_554  A
C574        C997   1.468       .  S
O575       Al577   1.932       .  S
O576        C578   1.250       .  A
O576       Al577   1.854       .  S
Al577       O585   1.875       .  S
Al577       O587   1.928       .  S
Al577       O586   1.767       .  S
C578        O591   1.273       .  A
C578       C3214   1.481       .  S
O579        C589   1.263   1_556  A
O579       Al581   1.920       .  S
O580        C593   1.263       .  A
O580       Al590   1.882       .  S
Al581       O594   1.936       .  S
Al581       O591   1.959       .  S
Al581       O586   1.782       .  S
O582        C589   1.271   1_556  A
O582       Al590   1.964       .  S
O583        C592   1.275       .  A
O583       Al590   1.985       .  S
O584       Al590   1.881   1_554  S
O585        C592   1.255       .  A
O586       Al590   1.780       .  S
O587        C588   1.264       .  A
C588       C3470   1.501       .  S
C589       C1198   1.514       .  S
C592        C901   1.507       .  S
C593        O594   1.270       .  A
C593       C3022   1.467       .  S
O595        C610   1.263       .  A
O595       Al603   1.913       .  S
C596        O606   1.257       .  A
C596        O597   1.262   1_554  A
C596        C965   1.462       .  S
O597       Al599   1.924       .  S
O598        C600   1.254       .  A
O598       Al599   1.865       .  S
Al599       O607   1.876       .  S
Al599       O609   1.928       .  S
Al599       O608   1.771       .  S
C600        O613   1.262       .  A
C600        C846   1.454       .  S
O601        C611   1.263   1_545  A
O601       Al603   1.914       .  S
O602        C615   1.262       .  A
O602       Al612   1.893   1_565  S
Al603       O616   1.909   1_545  S
Al603       O613   1.926       .  S
Al603       O608   1.784       .  S
O604        C611   1.270       .  A
O604       Al612   1.954   1_565  S
O605        C614   1.274       .  A
O605       Al612   1.975       .  S
O606       Al612   1.882   1_554  S
O607        C614   1.256       .  A
O608       Al612   1.778       .  S
O609        C610   1.266       .  A
C610        C869   1.507       .  S
C611       C1541   1.493   1_556  S
C614        C910   1.504       .  S
C615        O616   1.265       .  A
C615       C2853   1.478       .  S
O617        C632   1.270       .  A
O617       Al625   1.932       .  S
C618        O628   1.268       .  A
C618        O619   1.259       .  A
C618        C773   1.478       .  S
O619       Al621   1.883       .  S
O620        C622   1.270       .  A
O620       Al621   1.953       .  S
Al621       O629   1.967       .  S
Al621       O631   1.894       .  S
Al621       O630   1.776       .  S
C622        O635   1.261       .  A
C622        C878   1.498       .  S
O623        C633   1.263       .  A
O623       Al625   1.945       .  S
O624        C637   1.267       .  A
O624       Al634   1.942       .  S
Al625       O638   1.901       .  S
Al625       O635   1.899       .  S
Al625       O630   1.783       .  S
O626        C633   1.252       .  A
O626       Al634   1.871       .  S
O627        C636   1.259       .  A
O627       Al634   1.884       .  S
O628       Al634   1.943       .  S
O629        C636   1.270       .  A
O630       Al634   1.765       .  S
O631        C632   1.265       .  A
C632       C1326   1.473       .  S
C633       C2926   1.464       .  S
C636        C805   1.509       .  S
C637        O638   1.263       .  A
C637       C2638   1.487       .  S
O639        C654   1.269       .  A
O639       Al647   1.919       .  S
C640        O650   1.269       .  A
C640        O641   1.258       .  A
C640        C741   1.481       .  S
O641       Al643   1.875       .  S
O642        C644   1.268       .  A
O642       Al643   1.949       .  S
Al643       O651   1.955       .  S
Al643       O653   1.868       .  S
Al643       O652   1.774       .  S
C644        O657   1.263       .  A
C644       C1710   1.508       .  S
O645        C655   1.266       .  A
O645       Al647   1.936       .  S
O646        C659   1.269       .  A
O646       Al656   1.964       .  S
Al647       O660   1.907       .  S
Al647       O657   1.915       .  S
Al647       O652   1.777       .  S
O648        C655   1.251       .  A
O648       Al656   1.852       .  S
O649        C658   1.260       .  A
O649       Al656   1.890       .  S
O650       Al656   1.946       .  S
O651        C658   1.271       .  A
O652       Al656   1.770       .  S
O653        C654   1.260       .  A
C654       C1294   1.463       .  S
C655       C2350   1.456       .  S
C658        C814   1.486       .  S
C659        O660   1.264       .  A
C659       C2085   1.517       .  S
O661        C676   1.272       .  A
O661       Al669   1.935       .  S
C662        O672   1.267       .  A
C662        O663   1.260       .  A
C662        C782   1.489       .  S
O663       Al665   1.877   1_556  S
O664        C666   1.263       .  A
O664       Al665   1.937   1_556  S
Al665       O673   1.940       .  S
Al665       O675   1.875       .  S
Al665       O674   1.778       .  S
C666        O679   1.263       .  A
C666       C2949   1.506       .  S
O667        C677   1.267   1_554  A
O667       Al669   1.940       .  S
O668        C681   1.262       .  A
O668       Al678   1.924       .  S
Al669       O682   1.905       .  S
Al669       O679   1.911   1_554  S
Al669       O674   1.780       .  S
O670        C677   1.252       .  A
O670       Al678   1.845   1_556  S
O671        C680   1.258       .  A
O671       Al678   1.888       .  S
O672       Al678   1.944   1_556  S
O673        C680   1.265       .  A
O674       Al678   1.772       .  S
O675        C676   1.262       .  A
C676       C1486   1.474       .  S
C677        C837   1.471       .  S
C680        C709   1.497       .  S
C681        O682   1.264       .  A
C681        C942   1.508       .  S
O683        C698   1.260       .  A
O683       Al691   1.882       .  S
C684        O694   1.257       .  A
C684        O685   1.258       .  A
C684        C750   1.467       .  S
O685       Al687   1.897   1_556  S
O686        C688   1.261   1_556  A
O686       Al687   1.915   1_556  S
Al687       O695   1.909       .  S
Al687       O697   1.896       .  S
Al687       O696   1.798       .  S
C688        O701   1.254       .  A
C688       C2382   1.506   1_554  S
O689        C699   1.259       .  A
O689       Al691   1.896       .  S
O690        C703   1.260       .  A
O690       Al700   1.907       .  S
Al691       O704   1.909       .  S
Al691       O701   1.901       .  S
Al691       O696   1.797       .  S
O692        C699   1.258       .  A
O692       Al700   1.880       .  S
O693        C702   1.254       .  A
O693       Al700   1.881       .  S
O694       Al700   1.885   1_556  S
O695        C702   1.260       .  A
O696       Al700   1.791       .  S
O697        C698   1.262       .  A
C698       C1422   1.463       .  S
C699       C1678   1.452       .  S
C702        C718   1.476       .  S
C703        O704   1.258       .  A
C703       C1861   1.480       .  S
C705        C706   1.399       .  A
C705        C710   1.408       .  A
C705        H715   1.083       .  S
C706        C711   1.484       .  S
C706        C707   1.410       .  A
C707        C708   1.409       .  A
C707        C712   1.518       .  S
C708        C709   1.412       .  A
C708        H713   1.083       .  S
C709        C710   1.426       .  A
C710        C714   1.520       .  S
C711        C716   1.418       .  A
C711        C720   1.401       .  A
C712        F728   1.383       .  S
C712        F729   1.382       .  S
C712        F730   1.384       .  S
C714        F725   1.382   1_554  S
C714        F726   1.385       .  S
C714        F727   1.383       .  S
C716        C717   1.406       .  A
C716        C721   1.520       .  S
C717        C718   1.401       .  A
C717        H722   1.084       .  S
C718        C719   1.418       .  A
C719        C720   1.407       .  A
C719        C723   1.517       .  S
C720        H724   1.084       .  S
C721        F734   1.385       .  S
C721        F735   1.382       .  S
C721        F736   1.381       .  S
C723        F731   1.382       .  S
C723        F732   1.384       .  S
C723        F733   1.385       .  S
C737        C738   1.396       .  A
C737        C742   1.400       .  A
C737        H747   1.084       .  S
C738        C743   1.478       .  S
C738        C739   1.414       .  A
C739        C740   1.410       .  A
C739        C744   1.518       .  S
C740        C741   1.406       .  A
C740        H745   1.083       .  S
C741        C742   1.423       .  A
C742        C746   1.521       .  S
C743        C748   1.417       .  A
C743        C752   1.403       .  A
C744        F760   1.382       .  S
C744        F761   1.381       .  S
C744        F762   1.384       .  S
C746        F757   1.385       .  S
C746        F758   1.382       .  S
C746        F759   1.382       .  S
C748        C749   1.403       .  A
C748        C753   1.521       .  S
C749        C750   1.400       .  A
C749        H754   1.084       .  S
C750        C751   1.414       .  A
C751        C752   1.405       .  A
C751        C755   1.518       .  S
C752        H756   1.083       .  S
C753        F766   1.385       .  S
C753        F767   1.382       .  S
C753        F768   1.381       .  S
C755        F763   1.382       .  S
C755        F764   1.384       .  S
C755        F765   1.385       .  S
C769        C770   1.400       .  A
C769        C774   1.403       .  A
C769        H779   1.083       .  S
C770        C775   1.484       .  S
C770        C771   1.416       .  A
C771        C772   1.409       .  A
C771        C776   1.518       .  S
C772        C773   1.403       .  A
C772        H777   1.083       .  S
C773        C774   1.419       .  A
C774        C778   1.519       .  S
C775        C780   1.413       .  A
C775        C784   1.404       .  A
C776        F792   1.382       .  S
C776        F793   1.383       .  S
C776        F794   1.384       .  S
C778        F789   1.385       .  S
C778        F790   1.378       .  S
C778        F791   1.383       .  S
C780        C781   1.401       .  A
C780        C785   1.522       .  S
C781        C782   1.408       .  A
C781        H786   1.080       .  S
C782        C783   1.421       .  A
C783        C784   1.411       .  A
C783        C787   1.518       .  S
C784        H788   1.083       .  S
C785        F798   1.385       .  S
C785        F799   1.382       .  S
C785        F800   1.382       .  S
C787        F795   1.385       .  S
C787        F796   1.382       .  S
C787        F797   1.382       .  S
C801        C802   1.402       .  A
C801        C806   1.414       .  A
C801        H811   1.083       .  S
C802        C807   1.495       .  S
C802        C803   1.413       .  A
C803        C804   1.410       .  A
C803        C808   1.521       .  S
C804        C805   1.416       .  A
C804        H809   1.082       .  S
C805        C806   1.425       .  A
C806        C810   1.517       .  S
C807        C812   1.418       .  A
C807        C816   1.403       .  A
C808        F824   1.382       .  S
C808        F825   1.383       .  S
C808        F826   1.385       .  S
C810        F821   1.383       .  S
C810        F822   1.385       .  S
C810        F823   1.383       .  S
C812        C813   1.410       .  A
C812        C817   1.519       .  S
C813        C814   1.405       .  A
C813        H818   1.083       .  S
C814        C815   1.420       .  A
C815        C816   1.409       .  A
C815        C819   1.516       .  S
C816        H820   1.084       .  S
C817        F830   1.385       .  S
C817        F831   1.382       .  S
C817        F832   1.382       .  S
C819        F827   1.384       .  S
C819        F828   1.381       .  S
C819        F829   1.381       .  S
C833        C834   1.396       .  A
C833        C838   1.394       .  A
C833        H843   1.085       .  S
C834        C839   1.469       .  S
C834        C835   1.416       .  A
C835        C836   1.407   1_556  A
C835        C840   1.518   1_556  S
C836        C837   1.404   1_554  A
C836        H841   1.083       .  S
C837        C838   1.417       .  A
C838        C842   1.515       .  S
C839        C844   1.415       .  A
C839        C848   1.408       .  A
C840        F856   1.382       .  S
C840        F857   1.384   1_554  S
C840        F858   1.384       .  S
C842        F853   1.383       .  S
C842        F854   1.384       .  S
C842        F855   1.382       .  S
C844        C845   1.393       .  A
C844        C849   1.522       .  S
C845        C846   1.399       .  A
C845        H850   1.085       .  S
C846        C847   1.409       .  A
C847        C848   1.405       .  A
C847        C851   1.516   1_556  S
C848        H852   1.085   1_556  S
C849        F862   1.384       .  S
C849        F863   1.382       .  S
C849        F864   1.381       .  S
C851        F859   1.383       .  S
C851        F860   1.383   1_554  S
C851        F861   1.382       .  S
C865        C866   1.402       .  A
C865        C870   1.414       .  A
C865        H875   1.083       .  S
C866        C871   1.495       .  S
C866        C867   1.413       .  A
C867        C868   1.409       .  A
C867        C872   1.521       .  S
C868        C869   1.413       .  A
C868        H873   1.082       .  S
C869        C870   1.428       .  A
C870        C874   1.519       .  S
C871        C876   1.417       .  A
C871        C880   1.401       .  A
C872        F888   1.382       .  S
C872        F889   1.383       .  S
C872        F890   1.384       .  S
C874        F885   1.383       .  S
C874        F886   1.385       .  S
C874        F887   1.384       .  S
C876        C877   1.410       .  A
C876        C881   1.520       .  S
C877        C878   1.407       .  A
C877        H882   1.082       .  S
C878        C879   1.426       .  A
C879        C880   1.412       .  A
C879        C883   1.520       .  S
C880        H884   1.083       .  S
C881        F894   1.384       .  S
C881        F895   1.382       .  S
C881        F896   1.383       .  S
C883        F891   1.383       .  S
C883        F892   1.383       .  S
C883        F893   1.384       .  S
C897        C898   1.399       .  A
C897        C902   1.410       .  A
C897        H907   1.084       .  S
C898        C903   1.498       .  S
C898        C899   1.418       .  A
C899        C900   1.416       .  A
C899        C904   1.519       .  S
C900        C901   1.410       .  A
C900        H905   1.082       .  S
C901        C902   1.429       .  A
C902        C906   1.519       .  S
C903        C908   1.419       .  A
C903        C912   1.399       .  A
C904        F920   1.383       .  S
C904        F921   1.381       .  S
C904        F922   1.384       .  S
C906        F917   1.383       .  S
C906        F918   1.385       .  S
C906        F919   1.384       .  S
C908        C909   1.416       .  A
C908        C913   1.520       .  S
C909        C910   1.410       .  A
C909        H914   1.083       .  S
C910        C911   1.428       .  A
C911        C912   1.410       .  A
C911        C915   1.520       .  S
C912        H916   1.083       .  S
C913        F926   1.385       .  S
C913        F927   1.383       .  S
C913        F928   1.381       .  S
C915        F923   1.385       .  S
C915        F924   1.384       .  S
C915        F925   1.383       .  S
C929        C930   1.403       .  A
C929        C934   1.409       .  A
C929        H939   1.083       .  S
C930        C935   1.491       .  S
C930        C931   1.418       .  A
C931        C932   1.410       .  A
C931        C936   1.520       .  S
C932        C933   1.404       .  A
C932        H937   1.082       .  S
C933        C934   1.418       .  A
C934        C938   1.518       .  S
C935        C940   1.413       .  A
C935        C944   1.399       .  A
C936        F952   1.382       .  S
C936        F953   1.382       .  S
C936        F954   1.385       .  S
C938        F949   1.384       .  S
C938        F950   1.385       .  S
C938        F951   1.382       .  S
C940        C941   1.410       .  A
C940        C945   1.521       .  S
C941        C942   1.413       .  A
C941        H946   1.082       .  S
C942        C943   1.432       .  A
C943        C944   1.412       .  A
C943        C947   1.522       .  S
C944        H948   1.083       .  S
C945        F958   1.384       .  S
C945        F959   1.382       .  S
C945        F960   1.382       .  S
C947        F955   1.385       .  S
C947        F956   1.384       .  S
C947        F957   1.384       .  S
C961        C962   1.402       .  A
C961        C966   1.401       .  A
C961        H971   1.084       .  S
C962        C967   1.477       .  S
C962        C963   1.416       .  A
C963        C964   1.406       .  A
C963        C968   1.518       .  S
C964        C965   1.401       .  A
C964        H969   1.084       .  S
C965        C966   1.411       .  A
C966        C970   1.517       .  S
C967        C972   1.414       .  A
C967        C976   1.398       .  A
C968        F984   1.382       .  S
C968        F985   1.381       .  S
C968        F986   1.385       .  S
C970        F981   1.385       .  S
C970        F982   1.382       .  S
C970        F983   1.382       .  S
C972        C973   1.408       .  A
C972        C977   1.521       .  S
C973        C974   1.407       .  A
C973        H978   1.082       .  S
C974        C975   1.423       .  A
C975        C976   1.403       .  A
C975        C979   1.519       .  S
C976        H980   1.083       .  S
C977        F990   1.384       .  S
C977        F991   1.383       .  S
C977        F992   1.381       .  S
C979        F987   1.385       .  S
C979        F988   1.382       .  S
C979        F989   1.384       .  S
C993        C994   1.405       .  A
C993        C998   1.407       .  A
C993       H1003   1.083       .  S
C994        C999   1.473       .  S
C994        C995   1.416       .  A
C995        C996   1.397       .  A
C995       C1000   1.520       .  S
C996        C997   1.398       .  A
C996       H1001   1.081       .  S
C997        C998   1.414       .  A
C998       C1002   1.518       .  S
C999       C1004   1.412       .  A
C999       C1008   1.399       .  A
C1000      F1016   1.383       .  S
C1000      F1017   1.381       .  S
C1000      F1018   1.383       .  S
C1002      F1013   1.384       .  S
C1002      F1014   1.382       .  S
C1002      F1015   1.384       .  S
C1004      C1005   1.408       .  A
C1004      C1009   1.516       .  S
C1005      C1006   1.405       .  A
C1005      H1010   1.083       .  S
C1006      C1007   1.414       .  A
C1007      C1008   1.399       .  A
C1007      C1011   1.514       .  S
C1008      H1012   1.084       .  S
C1009      F1022   1.384       .  S
C1009      F1023   1.383       .  S
C1009      F1024   1.383       .  S
C1011      F1019   1.382       .  S
C1011      F1020   1.383       .  S
C1011      F1021   1.385       .  S
C1025      C1026   1.404       .  A
C1025      C1030   1.410       .  A
C1025      H1035   1.083       .  S
C1026      C1031   1.483       .  S
C1026      C1027   1.416       .  A
C1027      C1028   1.402       .  A
C1027      C1032   1.522       .  S
C1028      C1029   1.404       .  A
C1028      H1033   1.083       .  S
C1029      C1030   1.418       .  A
C1030      C1034   1.518       .  S
C1031      C1036   1.412       .  A
C1031      C1040   1.395       .  A
C1032      F1048   1.382       .  S
C1032      F1049   1.381       .  S
C1032      F1050   1.385       .  S
C1034      F1045   1.382       .  S
C1034      F1046   1.385       .  S
C1034      F1047   1.384       .  S
C1036      C1037   1.410       .  A
C1036      C1041   1.519       .  S
C1037      C1038   1.412       .  A
C1037      H1042   1.082       .  S
C1038      C1039   1.431       .  A
C1039      C1040   1.406       .  A
C1039      C1043   1.522       .  S
C1040      H1044   1.083       .  S
C1041      F1054   1.384       .  S
C1041      F1055   1.383       .  S
C1041      F1056   1.381       .  S
C1043      F1051   1.385       .  S
C1043      F1052   1.384       .  S
C1043      F1053   1.383       .  S
C1057      C1058   1.400       .  A
C1057      C1062   1.412       .  A
C1057      H1067   1.083       .  S
C1058      C1063   1.499   1_455  S
C1058      C1059   1.417       .  A
C1059      C1060   1.413       .  A
C1059      C1064   1.519       .  S
C1060      C1061   1.411       .  A
C1060      H1065   1.082       .  S
C1061      C1062   1.434       .  A
C1062      C1066   1.525       .  S
C1063      C1068   1.416   1_655  A
C1063      C1072   1.402       .  A
C1064      F1080   1.382   1_455  S
C1064      F1081   1.382       .  S
C1064      F1082   1.385       .  S
C1066      F1077   1.385       .  S
C1066      F1078   1.383       .  S
C1066      F1079   1.382       .  S
C1068      C1069   1.413   1_455  A
C1068      C1073   1.519       .  S
C1069      C1070   1.411       .  A
C1069      H1074   1.083   1_655  S
C1070      C1071   1.428       .  A
C1071      C1072   1.413       .  A
C1071      C1075   1.519       .  S
C1072      H1076   1.083       .  S
C1073      F1086   1.385       .  S
C1073      F1087   1.381       .  S
C1073      F1088   1.382       .  S
C1075      F1083   1.379       .  S
C1075      F1084   1.383       .  S
C1075      F1085   1.385       .  S
C1089      C1090   1.402       .  A
C1089      C1094   1.408       .  A
C1089      H1099   1.083       .  S
C1090      C1095   1.485       .  S
C1090      C1091   1.417       .  A
C1091      C1092   1.408       .  A
C1091      C1096   1.521       .  S
C1092      C1093   1.403       .  A
C1092      H1097   1.084       .  S
C1093      C1094   1.417       .  A
C1094      C1098   1.515       .  S
C1095      C1100   1.410       .  A
C1095      C1104   1.402       .  A
C1096      F1112   1.383       .  S
C1096      F1113   1.382       .  S
C1096      F1114   1.384       .  S
C1098      F1109   1.384       .  S
C1098      F1110   1.384       .  S
C1098      F1111   1.382       .  S
C1100      C1101   1.404       .  A
C1100      C1105   1.520       .  S
C1101      C1102   1.413       .  A
C1101      H1106   1.082       .  S
C1102      C1103   1.426       .  A
C1103      C1104   1.411       .  A
C1103      C1107   1.520       .  S
C1104      H1108   1.083       .  S
C1105      F1118   1.385       .  S
C1105      F1119   1.382       .  S
C1105      F1120   1.382       .  S
C1107      F1115   1.385       .  S
C1107      F1116   1.384       .  S
C1107      F1117   1.383       .  S
C1121      C1122   1.399       .  A
C1121      C1126   1.403       .  A
C1121      H1131   1.084       .  S
C1122      C1127   1.483       .  S
C1122      C1123   1.415       .  A
C1123      C1124   1.411       .  A
C1123      C1128   1.519       .  S
C1124      C1125   1.407       .  A
C1124      H1129   1.083       .  S
C1125      C1126   1.420       .  A
C1126      C1130   1.521       .  S
C1127      C1132   1.413       .  A
C1127      C1136   1.402       .  A
C1128      F1144   1.382       .  S
C1128      F1145   1.381       .  S
C1128      F1146   1.385       .  S
C1130      F1141   1.385       .  S
C1130      F1142   1.382       .  S
C1130      F1143   1.382       .  S
C1132      C1133   1.402       .  A
C1132      C1137   1.524       .  S
C1133      C1134   1.408       .  A
C1133      H1138   1.078       .  S
C1134      C1135   1.426       .  A
C1135      C1136   1.412       .  A
C1135      C1139   1.520       .  S
C1136      H1140   1.083       .  S
C1137      F1150   1.385       .  S
C1137      F1151   1.382       .  S
C1137      F1152   1.381       .  S
C1139      F1147   1.383       .  S
C1139      F1148   1.384       .  S
C1139      F1149   1.385       .  S
C1153      C1154   1.411       .  A
C1153      C1158   1.408       .  A
C1153      H1163   1.083   1_655  S
C1154      C1159   1.480       .  S
C1154      C1155   1.413       .  A
C1155      C1156   1.388       .  A
C1155      C1160   1.523       .  S
C1156      C1157   1.411       .  A
C1156      H1161   1.086       .  S
C1157      C1158   1.417       .  A
C1158      C1162   1.517   1_655  S
C1159      C1164   1.417       .  A
C1159      C1168   1.404       .  A
C1160      F1176   1.383       .  S
C1160      F1177   1.382       .  S
C1160      F1178   1.386       .  S
C1162      F1173   1.383       .  S
C1162      F1174   1.385       .  S
C1162      F1175   1.383       .  S
C1164      C1165   1.397   1_655  A
C1164      C1169   1.517       .  S
C1165      C1166   1.400   1_455  A
C1165      H1170   1.087       .  S
C1166      C1167   1.416       .  A
C1167      C1168   1.396       .  A
C1167      C1171   1.518       .  S
C1168      H1172   1.083       .  S
C1169      F1182   1.384       .  S
C1169      F1183   1.383   1_655  S
C1169      F1184   1.382       .  S
C1171      F1179   1.375       .  S
C1171      F1180   1.383       .  S
C1171      F1181   1.385       .  S
C1185      C1186   1.403       .  A
C1185      C1190   1.420       .  A
C1185      H1195   1.083       .  S
C1186      C1191   1.514       .  S
C1186      C1187   1.418       .  A
C1187      C1188   1.419       .  A
C1187      C1192   1.518       .  S
C1188      C1189   1.414       .  A
C1188      H1193   1.082       .  S
C1189      C1190   1.432       .  A
C1190      C1194   1.520       .  S
C1191      C1196   1.420   1_655  A
C1191      C1200   1.403       .  A
C1192      F1208   1.383       .  S
C1192      F1209   1.382   1_655  S
C1192      F1210   1.385       .  S
C1194      F1205   1.382       .  S
C1194      F1206   1.385       .  S
C1194      F1207   1.384       .  S
C1196      C1197   1.421       .  A
C1196      C1201   1.517       .  S
C1197      C1198   1.409       .  A
C1197      H1202   1.083       .  S
C1198      C1199   1.428   1_455  A
C1199      C1200   1.419       .  A
C1199      C1203   1.518   1_554  S
C1200      H1204   1.083       .  S
C1201      F1214   1.384       .  S
C1201      F1215   1.382       .  S
C1201      F1216   1.382       .  S
C1203      F1211   1.385       .  S
C1203      F1212   1.383       .  S
C1203      F1213   1.381       .  S
C1217      C1218   1.401       .  A
C1217      C1222   1.407       .  A
C1217      H1227   1.083       .  S
C1218      C1223   1.476       .  S
C1218      C1219   1.414       .  A
C1219      C1220   1.401       .  A
C1219      C1224   1.522       .  S
C1220      C1221   1.407       .  A
C1220      H1225   1.082       .  S
C1221      C1222   1.422       .  A
C1222      C1226   1.519       .  S
C1223      C1228   1.414       .  A
C1223      C1232   1.396       .  A
C1224      F1240   1.382       .  S
C1224      F1241   1.380       .  S
C1224      F1242   1.384       .  S
C1226      F1237   1.385       .  S
C1226      F1238   1.383       .  S
C1226      F1239   1.381       .  S
C1228      C1229   1.410       .  A
C1228      C1233   1.517       .  S
C1229      C1230   1.405       .  A
C1229      H1234   1.083       .  S
C1230      C1231   1.420       .  A
C1231      C1232   1.398       .  A
C1231      C1235   1.517       .  S
C1232      H1236   1.084       .  S
C1233      F1246   1.384       .  S
C1233      F1247   1.383       .  S
C1233      F1248   1.381       .  S
C1235      F1243   1.385       .  S
C1235      F1244   1.381       .  S
C1235      F1245   1.383       .  S
C1249      C1250   1.402       .  A
C1249      C1254   1.410       .  A
C1249      H1259   1.083       .  S
C1250      C1255   1.493       .  S
C1250      C1251   1.418       .  A
C1251      C1252   1.409       .  A
C1251      C1256   1.520       .  S
C1252      C1253   1.405       .  A
C1252      H1257   1.083       .  S
C1253      C1254   1.421       .  A
C1254      C1258   1.518       .  S
C1255      C1260   1.411       .  A
C1255      C1264   1.403       .  A
C1256      F1272   1.382       .  S
C1256      F1273   1.382       .  S
C1256      F1274   1.385       .  S
C1258      F1269   1.384       .  S
C1258      F1270   1.385       .  S
C1258      F1271   1.383       .  S
C1260      C1261   1.408       .  A
C1260      C1265   1.520       .  S
C1261      C1262   1.413       .  A
C1261      H1266   1.082       .  S
C1262      C1263   1.428       .  A
C1263      C1264   1.415       .  A
C1263      C1267   1.519       .  S
C1264      H1268   1.083       .  S
C1265      F1278   1.384       .  S
C1265      F1279   1.382       .  S
C1265      F1280   1.382       .  S
C1267      F1275   1.385       .  S
C1267      F1276   1.383       .  S
C1267      F1277   1.383       .  S
C1281      C1282   1.402       .  A
C1281      C1286   1.402       .  A
C1281      H1291   1.083       .  S
C1282      C1287   1.462       .  S
C1282      C1283   1.413       .  A
C1283      C1284   1.397       .  A
C1283      C1288   1.523       .  S
C1284      C1285   1.400       .  A
C1284      H1289   1.084       .  S
C1285      C1286   1.409       .  A
C1286      C1290   1.515       .  S
C1287      C1292   1.410       .  A
C1287      C1296   1.398       .  A
C1288      F1304   1.383       .  S
C1288      F1305   1.381       .  S
C1288      F1306   1.384       .  S
C1290      F1301   1.384       .  S
C1290      F1302   1.382       .  S
C1290      F1303   1.384       .  S
C1292      C1293   1.400       .  A
C1292      C1297   1.521       .  S
C1293      C1294   1.406       .  A
C1293      H1298   1.083       .  S
C1294      C1295   1.416       .  A
C1295      C1296   1.397       .  A
C1295      C1299   1.518       .  S
C1296      H1300   1.083       .  S
C1297      F1310   1.385       .  S
C1297      F1311   1.382       .  S
C1297      F1312   1.381       .  S
C1299      F1307   1.385       .  S
C1299      F1308   1.383       .  S
C1299      F1309   1.382       .  S
C1313      C1314   1.402       .  A
C1313      C1318   1.408       .  A
C1313      H1323   1.083       .  S
C1314      C1319   1.482       .  S
C1314      C1315   1.416       .  A
C1315      C1316   1.405       .  A
C1315      C1320   1.520       .  S
C1316      C1317   1.402       .  A
C1316      H1321   1.083       .  S
C1317      C1318   1.418       .  A
C1318      C1322   1.519       .  S
C1319      C1324   1.415       .  A
C1319      C1328   1.404       .  A
C1320      F1336   1.382       .  S
C1320      F1337   1.382       .  S
C1320      F1338   1.385       .  S
C1322      F1333   1.385       .  S
C1322      F1334   1.381       .  S
C1322      F1335   1.384   1_545  S
C1324      C1325   1.405       .  A
C1324      C1329   1.520       .  S
C1325      C1326   1.403       .  A
C1325      H1330   1.084       .  S
C1326      C1327   1.413       .  A
C1327      C1328   1.408       .  A
C1327      C1331   1.517       .  S
C1328      H1332   1.083       .  S
C1329      F1342   1.385       .  S
C1329      F1343   1.382       .  S
C1329      F1344   1.382       .  S
C1331      F1339   1.384       .  S
C1331      F1340   1.383       .  S
C1331      F1341   1.383       .  S
C1345      C1346   1.404       .  A
C1345      C1350   1.415       .  A
C1345      H1355   1.083       .  S
C1346      C1351   1.504       .  S
C1346      C1347   1.419       .  A
C1347      C1348   1.416       .  A
C1347      C1352   1.519       .  S
C1348      C1349   1.408   1_545  A
C1348      H1353   1.083   1_545  S
C1349      C1350   1.425   1_565  A
C1350      C1354   1.519   1_545  S
C1351      C1356   1.417       .  A
C1351      C1360   1.398       .  A
C1352      F1368   1.382       .  S
C1352      F1369   1.382       .  S
C1352      F1370   1.384       .  S
C1354      F1365   1.385   1_565  S
C1354      F1366   1.383       .  S
C1354      F1367   1.382   1_565  S
C1356      C1357   1.418       .  A
C1356      C1361   1.519       .  S
C1357      C1358   1.413       .  A
C1357      H1362   1.082       .  S
C1358      C1359   1.436       .  A
C1359      C1360   1.413       .  A
C1359      C1363   1.523       .  S
C1360      H1364   1.082       .  S
C1361      F1374   1.384       .  S
C1361      F1375   1.382       .  S
C1361      F1376   1.382       .  S
C1363      F1371   1.383       .  S
C1363      F1372   1.383       .  S
C1363      F1373   1.385       .  S
C1377      C1378   1.403       .  A
C1377      C1382   1.411       .  A
C1377      H1387   1.083       .  S
C1378      C1383   1.490       .  S
C1378      C1379   1.416       .  A
C1379      C1380   1.408       .  A
C1379      C1384   1.521       .  S
C1380      C1381   1.405       .  A
C1380      H1385   1.083       .  S
C1381      C1382   1.419       .  A
C1382      C1386   1.517       .  S
C1383      C1388   1.412       .  A
C1383      C1392   1.404       .  A
C1384      F1400   1.382       .  S
C1384      F1401   1.382       .  S
C1384      F1402   1.384       .  S
C1386      F1397   1.381       .  S
C1386      F1398   1.385       .  S
C1386      F1399   1.381       .  S
C1388      C1389   1.405       .  A
C1388      C1393   1.521       .  S
C1389      C1390   1.413       .  A
C1389      H1394   1.082       .  S
C1390      C1391   1.423       .  A
C1391      C1392   1.414       .  A
C1391      C1395   1.518       .  S
C1392      H1396   1.083       .  S
C1393      F1406   1.385       .  S
C1393      F1407   1.382       .  S
C1393      F1408   1.382       .  S
C1395      F1403   1.383       .  S
C1395      F1404   1.385       .  S
C1395      F1405   1.382       .  S
C1409      C1410   1.400       .  A
C1409      C1414   1.402       .  A
C1409      H1419   1.084       .  S
C1410      C1415   1.470       .  S
C1410      C1411   1.410       .  A
C1411      C1412   1.401       .  A
C1411      C1416   1.520       .  S
C1412      C1413   1.407       .  A
C1412      H1417   1.083       .  S
C1413      C1414   1.414       .  A
C1414      C1418   1.513       .  S
C1415      C1420   1.415       .  A
C1415      C1424   1.400       .  A
C1416      F1432   1.382       .  S
C1416      F1433   1.382       .  S
C1416      F1434   1.384       .  S
C1418      F1429   1.385       .  S
C1418      F1430   1.384   1_545  S
C1418      F1431   1.380       .  S
C1420      C1421   1.402       .  A
C1420      C1425   1.521       .  S
C1421      C1422   1.402       .  A
C1421      H1426   1.083       .  S
C1422      C1423   1.414       .  A
C1423      C1424   1.400       .  A
C1423      C1427   1.517       .  S
C1424      H1428   1.084       .  S
C1425      F1438   1.385       .  S
C1425      F1439   1.382       .  S
C1425      F1440   1.381       .  S
C1427      F1435   1.384       .  S
C1427      F1436   1.383       .  S
C1427      F1437   1.384       .  S
C1441      C1442   1.406       .  A
C1441      C1446   1.409       .  A
C1441      H1451   1.083       .  S
C1442      C1447   1.476       .  S
C1442      C1443   1.420       .  A
C1443      C1444   1.396       .  A
C1443      C1448   1.521       .  S
C1444      C1445   1.395       .  A
C1444      H1449   1.086       .  S
C1445      C1446   1.411       .  A
C1446      C1450   1.516       .  S
C1447      C1452   1.413       .  A
C1447      C1456   1.394       .  A
C1448      F1464   1.383       .  S
C1448      F1465   1.379       .  S
C1448      F1466   1.384       .  S
C1450      F1461   1.384       .  S
C1450      F1462   1.383       .  S
C1450      F1463   1.383       .  S
C1452      C1453   1.409       .  A
C1452      C1457   1.516       .  S
C1453      C1454   1.407       .  A
C1453      H1458   1.083       .  S
C1454      C1455   1.427       .  A
C1455      C1456   1.402       .  A
C1455      C1459   1.519       .  S
C1456      H1460   1.083       .  S
C1457      F1470   1.384       .  S
C1457      F1471   1.383       .  S
C1457      F1472   1.383       .  S
C1459      F1467   1.383       .  S
C1459      F1468   1.382       .  S
C1459      F1469   1.383       .  S
C1473      C1474   1.404       .  A
C1473      C1478   1.406       .  A
C1473      H1483   1.083       .  S
C1474      C1479   1.481       .  S
C1474      C1475   1.416       .  A
C1475      C1476   1.405       .  A
C1475      C1480   1.520       .  S
C1476      C1477   1.400       .  A
C1476      H1481   1.084       .  S
C1477      C1478   1.411       .  A
C1478      C1482   1.517       .  S
C1479      C1484   1.415       .  A
C1479      C1488   1.403       .  A
C1480      F1496   1.382       .  S
C1480      F1497   1.383       .  S
C1480      F1498   1.384       .  S
C1482      F1493   1.383       .  S
C1482      F1494   1.385       .  S
C1482      F1495   1.383       .  S
C1484      C1485   1.404       .  A
C1484      C1489   1.520       .  S
C1485      C1486   1.403       .  A
C1485      H1490   1.083       .  S
C1486      C1487   1.417       .  A
C1487      C1488   1.405       .  A
C1487      C1491   1.520       .  S
C1488      H1492   1.083       .  S
C1489      F1502   1.384       .  S
C1489      F1503   1.382       .  S
C1489      F1504   1.382       .  S
C1491      F1499   1.383       .  S
C1491      F1500   1.385       .  S
C1491      F1501   1.385       .  S
C1505      C1506   1.388       .  A
C1505      C1510   1.387       .  A
C1505      H1515   1.085   1_565  S
C1506      C1511   1.458   1_565  S
C1506      C1507   1.414       .  A
C1507      C1508   1.408       .  A
C1507      C1512   1.517       .  S
C1508      C1509   1.403       .  A
C1508      H1513   1.083       .  S
C1509      C1510   1.424       .  A
C1510      C1514   1.520       .  S
C1511      C1516   1.414       .  A
C1511      C1520   1.397       .  A
C1512      F1528   1.383       .  S
C1512      F1529   1.381       .  S
C1512      F1530   1.384       .  S
C1514      F1525   1.386       .  S
C1514      F1526   1.378       .  S
C1514      F1527   1.380       .  S
C1516      C1517   1.399       .  A
C1516      C1521   1.520       .  S
C1517      C1518   1.401       .  A
C1517      H1522   1.084       .  S
C1518      C1519   1.412       .  A
C1519      C1520   1.391       .  A
C1519      C1523   1.515       .  S
C1520      H1524   1.085       .  S
C1521      F1534   1.385       .  S
C1521      F1535   1.382       .  S
C1521      F1536   1.381   1_545  S
C1523      F1531   1.383       .  S
C1523      F1532   1.383       .  S
C1523      F1533   1.378       .  S
C1537      C1538   1.403       .  A
C1537      C1542   1.412   1_554  A
C1537      H1547   1.083       .  S
C1538      C1543   1.501       .  S
C1538      C1539   1.420       .  A
C1539      C1540   1.416       .  A
C1539      C1544   1.519       .  S
C1540      C1541   1.405       .  A
C1540      H1545   1.082   1_565  S
C1541      C1542   1.419   1_554  A
C1542      C1546   1.515       .  S
C1543      C1548   1.417       .  A
C1543      C1552   1.406       .  A
C1544      F1560   1.383       .  S
C1544      F1561   1.383       .  S
C1544      F1562   1.384   1_565  S
C1546      F1557   1.379       .  S
C1546      F1558   1.384       .  S
C1546      F1559   1.383       .  S
C1548      C1549   1.410       .  A
C1548      C1553   1.520       .  S
C1549      C1550   1.408       .  A
C1549      H1554   1.082       .  S
C1550      C1551   1.423       .  A
C1551      C1552   1.416       .  A
C1551      C1555   1.519       .  S
C1552      H1556   1.083       .  S
C1553      F1566   1.385       .  S
C1553      F1567   1.382       .  S
C1553      F1568   1.382       .  S
C1555      F1563   1.385       .  S
C1555      F1564   1.384       .  S
C1555      F1565   1.382       .  S
C1569      C1570   1.401       .  A
C1569      C1574   1.408       .  A
C1569      H1579   1.083       .  S
C1570      C1575   1.492       .  S
C1570      C1571   1.416       .  A
C1571      C1572   1.411       .  A
C1571      C1576   1.519       .  S
C1572      C1573   1.407       .  A
C1572      H1577   1.083       .  S
C1573      C1574   1.420       .  A
C1574      C1578   1.515       .  S
C1575      C1580   1.417       .  A
C1575      C1584   1.402       .  A
C1576      F1592   1.382       .  S
C1576      F1593   1.382       .  S
C1576      F1594   1.384       .  S
C1578      F1589   1.382       .  S
C1578      F1590   1.385       .  S
C1578      F1591   1.381       .  S
C1580      C1581   1.410       .  A
C1580      C1585   1.518       .  S
C1581      C1582   1.405       .  A
C1581      H1586   1.083       .  S
C1582      C1583   1.418       .  A
C1583      C1584   1.407       .  A
C1583      C1587   1.515       .  S
C1584      H1588   1.083       .  S
C1585      F1598   1.385       .  S
C1585      F1599   1.382       .  S
C1585      F1600   1.382       .  S
C1587      F1595   1.385       .  S
C1587      F1596   1.382       .  S
C1587      F1597   1.382       .  S
C1601      C1602   1.405       .  A
C1601      C1606   1.415       .  A
C1601      H1611   1.083       .  S
C1602      C1607   1.489       .  S
C1602      C1603   1.411       .  A
C1603      C1604   1.404       .  A
C1603      C1608   1.522       .  S
C1604      C1605   1.414       .  A
C1604      H1609   1.082       .  S
C1605      C1606   1.424       .  A
C1606      C1610   1.518       .  S
C1607      C1612   1.418       .  A
C1607      C1616   1.401       .  A
C1608      F1624   1.382       .  S
C1608      F1625   1.383       .  S
C1608      F1626   1.384       .  S
C1610      F1621   1.383       .  S
C1610      F1622   1.385       .  S
C1610      F1623   1.384       .  S
C1612      C1613   1.410       .  A
C1612      C1617   1.518       .  S
C1613      C1614   1.403       .  A
C1613      H1618   1.084       .  S
C1614      C1615   1.418       .  A
C1615      C1616   1.405       .  A
C1615      C1619   1.517       .  S
C1616      H1620   1.085       .  S
C1617      F1630   1.385       .  S
C1617      F1631   1.382       .  S
C1617      F1632   1.382       .  S
C1619      F1627   1.384       .  S
C1619      F1628   1.383       .  S
C1619      F1629   1.382       .  S
C1633      C1634   1.406       .  A
C1633      C1638   1.412       .  A
C1633      H1643   1.083       .  S
C1634      C1639   1.490       .  S
C1634      C1635   1.415       .  A
C1635      C1636   1.407       .  A
C1635      C1640   1.520       .  S
C1636      C1637   1.406       .  A
C1636      H1641   1.083   1_554  S
C1637      C1638   1.418       .  A
C1638      C1642   1.518       .  S
C1639      C1644   1.416       .  A
C1639      C1648   1.403       .  A
C1640      F1656   1.382       .  S
C1640      F1657   1.381       .  S
C1640      F1658   1.385   1_554  S
C1642      F1653   1.385       .  S
C1642      F1654   1.382       .  S
C1642      F1655   1.383       .  S
C1644      C1645   1.409       .  A
C1644      C1649   1.520       .  S
C1645      C1646   1.408       .  A
C1645      H1650   1.083       .  S
C1646      C1647   1.417       .  A
C1647      C1648   1.410       .  A
C1647      C1651   1.512       .  S
C1648      H1652   1.083       .  S
C1649      F1662   1.385       .  S
C1649      F1663   1.382       .  S
C1649      F1664   1.382       .  S
C1651      F1659   1.381       .  S
C1651      F1660   1.382       .  S
C1651      F1661   1.385       .  S
C1665      C1666   1.407       .  A
C1665      C1670   1.407       .  A
C1665      H1675   1.084   1_556  S
C1666      C1671   1.467       .  S
C1666      C1667   1.408       .  A
C1667      C1668   1.393       .  A
C1667      C1672   1.522       .  S
C1668      C1669   1.405       .  A
C1668      H1673   1.083       .  S
C1669      C1670   1.409       .  A
C1670      C1674   1.515   1_556  S
C1671      C1676   1.415   1_556  A
C1671      C1680   1.399       .  A
C1672      F1688   1.381       .  S
C1672      F1689   1.381       .  S
C1672      F1690   1.385       .  S
C1674      F1685   1.385       .  S
C1674      F1686   1.383   1_554  S
C1674      F1687   1.383       .  S
C1676      C1677   1.401       .  A
C1676      C1681   1.521       .  S
C1677      C1678   1.401       .  A
C1677      H1682   1.085       .  S
C1678      C1679   1.411   1_554  A
C1679      C1680   1.398       .  A
C1679      C1683   1.515       .  S
C1680      H1684   1.085       .  S
C1681      F1694   1.385       .  S
C1681      F1695   1.381       .  S
C1681      F1696   1.381       .  S
C1683      F1691   1.383       .  S
C1683      F1692   1.383       .  S
C1683      F1693   1.384       .  S
C1697      C1698   1.406       .  A
C1697      C1702   1.419       .  A
C1697      H1707   1.083       .  S
C1698      C1703   1.504       .  S
C1698      C1699   1.416       .  A
C1699      C1700   1.411       .  A
C1699      C1704   1.519       .  S
C1700      C1701   1.409       .  A
C1700      H1705   1.082       .  S
C1701      C1702   1.424       .  A
C1702      C1706   1.518       .  S
C1703      C1708   1.416       .  A
C1703      C1712   1.404       .  A
C1704      F1720   1.382       .  S
C1704      F1721   1.383       .  S
C1704      F1722   1.383       .  S
C1706      F1717   1.383       .  S
C1706      F1718   1.385       .  S
C1706      F1719   1.384       .  S
C1708      C1709   1.413       .  A
C1708      C1713   1.518       .  S
C1709      C1710   1.409       .  A
C1709      H1714   1.082       .  S
C1710      C1711   1.427       .  A
C1711      C1712   1.417       .  A
C1711      C1715   1.519       .  S
C1712      H1716   1.083       .  S
C1713      F1726   1.384       .  S
C1713      F1727   1.383       .  S
C1713      F1728   1.382       .  S
C1715      F1723   1.385       .  S
C1715      F1724   1.384       .  S
C1715      F1725   1.381       .  S
C1729      C1730   1.399       .  A
C1729      C1734   1.406       .  A
C1729      H1739   1.084       .  S
C1730      C1735   1.489       .  S
C1730      C1731   1.418       .  A
C1731      C1732   1.412       .  A
C1731      C1736   1.520       .  S
C1732      C1733   1.408       .  A
C1732      H1737   1.083       .  S
C1733      C1734   1.423       .  A
C1734      C1738   1.518       .  S
C1735      C1740   1.416       .  A
C1735      C1744   1.397       .  A
C1736      F1752   1.383       .  S
C1736      F1753   1.381       .  S
C1736      F1754   1.385       .  S
C1738      F1749   1.383       .  S
C1738      F1750   1.384       .  S
C1738      F1751   1.385       .  S
C1740      C1741   1.413       .  A
C1740      C1745   1.519       .  S
C1741      C1742   1.410       .  A
C1741      H1746   1.082       .  S
C1742      C1743   1.429       .  A
C1743      C1744   1.407       .  A
C1743      C1747   1.519       .  S
C1744      H1748   1.084       .  S
C1745      F1758   1.384       .  S
C1745      F1759   1.383       .  S
C1745      F1760   1.381       .  S
C1747      F1755   1.385       .  S
C1747      F1756   1.384       .  S
C1747      F1757   1.383       .  S
C1761      C1762   1.401       .  A
C1761      C1766   1.414       .  A
C1761      H1771   1.083       .  S
C1762      C1767   1.494       .  S
C1762      C1763   1.416       .  A
C1763      C1764   1.410       .  A
C1763      C1768   1.520       .  S
C1764      C1765   1.408       .  A
C1764      H1769   1.082       .  S
C1765      C1766   1.429       .  A
C1766      C1770   1.521   1_554  S
C1767      C1772   1.415       .  A
C1767      C1776   1.399       .  A
C1768      F1784   1.382       .  S
C1768      F1785   1.381       .  S
C1768      F1786   1.384       .  S
C1770      F1781   1.385       .  S
C1770      F1782   1.383   1_556  S
C1770      F1783   1.382       .  S
C1772      C1773   1.413       .  A
C1772      C1777   1.521       .  S
C1773      C1774   1.412       .  A
C1773      H1778   1.083       .  S
C1774      C1775   1.431       .  A
C1775      C1776   1.411       .  A
C1775      C1779   1.522       .  S
C1776      H1780   1.083       .  S
C1777      F1790   1.385       .  S
C1777      F1791   1.382       .  S
C1777      F1792   1.381       .  S
C1779      F1787   1.385       .  S
C1779      F1788   1.383       .  S
C1779      F1789   1.381       .  S
C1793      C1794   1.388       .  A
C1793      C1798   1.391       .  A
C1793      H1803   1.084       .  S
C1794      C1799   1.462       .  S
C1794      C1795   1.413       .  A
C1795      C1796   1.405       .  A
C1795      C1800   1.518       .  S
C1796      C1797   1.404       .  A
C1796      H1801   1.083       .  S
C1797      C1798   1.431       .  A
C1798      C1802   1.526       .  S
C1799      C1804   1.415       .  A
C1799      C1808   1.400       .  A
C1800      F1816   1.383       .  S
C1800      F1817   1.381       .  S
C1800      F1818   1.385       .  S
C1802      F1813   1.385       .  S
C1802      F1814   1.383       .  S
C1802      F1815   1.379       .  S
C1804      C1805   1.401       .  A
C1804      C1809   1.519       .  S
C1805      C1806   1.400       .  A
C1805      H1810   1.084       .  S
C1806      C1807   1.408       .  A
C1807      C1808   1.394       .  A
C1807      C1811   1.515       .  S
C1808      H1812   1.085       .  S
C1809      F1822   1.385       .  S
C1809      F1823   1.382       .  S
C1809      F1824   1.381       .  S
C1811      F1819   1.384       .  S
C1811      F1820   1.383       .  S
C1811      F1821   1.381       .  S
C1825      C1826   1.400       .  A
C1825      C1830   1.412       .  A
C1825      H1835   1.083       .  S
C1826      C1831   1.496       .  S
C1826      C1827   1.415       .  A
C1827      C1828   1.410       .  A
C1827      C1832   1.518       .  S
C1828      C1829   1.409       .  A
C1828      H1833   1.082       .  S
C1829      C1830   1.431       .  A
C1830      C1834   1.522       .  S
C1831      C1836   1.417       .  A
C1831      C1840   1.405       .  A
C1832      F1848   1.382       .  S
C1832      F1849   1.382       .  S
C1832      F1850   1.385       .  S
C1834      F1845   1.383       .  S
C1834      F1846   1.385       .  S
C1834      F1847   1.384       .  S
C1836      C1837   1.408       .  A
C1836      C1841   1.519       .  S
C1837      C1838   1.404       .  A
C1837      H1842   1.083       .  S
C1838      C1839   1.418       .  A
C1839      C1840   1.414       .  A
C1839      C1843   1.516       .  S
C1840      H1844   1.083       .  S
C1841      F1854   1.383       .  S
C1841      F1855   1.382       .  S
C1841      F1856   1.381       .  S
C1843      F1851   1.385       .  S
C1843      F1852   1.383       .  S
C1843      F1853   1.382       .  S
C1857      C1858   1.408       .  A
C1857      C1862   1.413       .  A
C1857      H1867   1.083       .  S
C1858      C1863   1.496       .  S
C1858      C1859   1.419       .  A
C1859      C1860   1.409       .  A
C1859      C1864   1.520       .  S
C1860      C1861   1.402       .  A
C1860      H1865   1.083       .  S
C1861      C1862   1.414       .  A
C1862      C1866   1.518       .  S
C1863      C1868   1.417       .  A
C1863      C1872   1.402       .  A
C1864      F1880   1.382       .  S
C1864      F1881   1.379       .  S
C1864      F1882   1.384       .  S
C1866      F1877   1.384       .  S
C1866      F1878   1.383       .  S
C1866      F1879   1.384       .  S
C1868      C1869   1.415       .  A
C1868      C1873   1.521       .  S
C1869      C1870   1.411       .  A
C1869      H1874   1.082       .  S
C1870      C1871   1.425       .  A
C1871      C1872   1.411       .  A
C1871      C1875   1.520       .  S
C1872      H1876   1.083       .  S
C1873      F1886   1.384       .  S
C1873      F1887   1.382       .  S
C1873      F1888   1.380       .  S
C1875      F1883   1.381       .  S
C1875      F1884   1.381       .  S
C1875      F1885   1.385       .  S
C1889      C1890   1.400       .  A
C1889      C1894   1.410       .  A
C1889      H1899   1.083       .  S
C1890      C1895   1.483       .  S
C1890      C1891   1.410       .  A
C1891      C1892   1.405       .  A
C1891      C1896   1.519       .  S
C1892      C1893   1.411       .  A
C1892      H1897   1.082       .  S
C1893      C1894   1.427       .  A
C1894      C1898   1.521       .  S
C1895      C1900   1.416       .  A
C1895      C1904   1.406       .  A
C1896      F1912   1.383       .  S
C1896      F1913   1.383       .  S
C1896      F1914   1.384       .  S
C1898      F1909   1.383       .  S
C1898      F1910   1.385       .  S
C1898      F1911   1.383       .  S
C1900      C1901   1.399       .  A
C1900      C1905   1.523       .  S
C1901      C1902   1.401       .  A
C1901      H1906   1.084       .  S
C1902      C1903   1.416       .  A
C1903      C1904   1.413       .  A
C1903      C1907   1.516       .  S
C1904      H1908   1.083       .  S
C1905      F1918   1.385       .  S
C1905      F1919   1.382       .  S
C1905      F1920   1.383       .  S
C1907      F1915   1.382       .  S
C1907      F1916   1.382       .  S
C1907      F1917   1.385       .  S
C1921      C1922   1.402       .  A
C1921      C1926   1.410       .  A
C1921      H1931   1.083       .  S
C1922      C1927   1.481       .  S
C1922      C1923   1.414       .  A
C1923      C1924   1.401       .  A
C1923      C1928   1.522       .  S
C1924      C1925   1.406       .  A
C1924      H1929   1.082       .  S
C1925      C1926   1.424       .  A
C1926      C1930   1.520       .  S
C1927      C1932   1.412       .  A
C1927      C1936   1.402       .  A
C1928      F1944   1.382       .  S
C1928      F1945   1.383       .  S
C1928      F1946   1.385       .  S
C1930      F1941   1.383       .  S
C1930      F1942   1.385       .  S
C1930      F1943   1.383       .  S
C1932      C1933   1.402       .  A
C1932      C1937   1.522       .  S
C1933      C1934   1.409       .  A
C1933      H1938   1.083       .  S
C1934      C1935   1.422       .  A
C1935      C1936   1.410       .  A
C1935      C1939   1.519       .  S
C1936      H1940   1.083       .  S
C1937      F1950   1.385       .  S
C1937      F1951   1.382       .  S
C1937      F1952   1.383       .  S
C1939      F1947   1.384       .  S
C1939      F1948   1.383       .  S
C1939      F1949   1.385       .  S
C1953      C1954   1.395       .  A
C1953      C1958   1.408       .  A
C1953      H1963   1.083       .  S
C1954      C1959   1.488       .  S
C1954      C1955   1.414       .  A
C1955      C1956   1.411       .  A
C1955      C1960   1.519       .  S
C1956      C1957   1.411       .  A
C1956      H1961   1.082       .  S
C1957      C1958   1.433       .  A
C1958      C1962   1.522       .  S
C1959      C1964   1.417       .  A
C1959      C1968   1.398       .  A
C1960      F1976   1.383       .  S
C1960      F1977   1.381       .  S
C1960      F1978   1.385       .  S
C1962      F1973   1.383       .  S
C1962      F1974   1.385       .  S
C1962      F1975   1.383       .  S
C1964      C1965   1.411       .  A
C1964      C1969   1.519       .  S
C1965      C1966   1.407       .  A
C1965      H1970   1.082       .  S
C1966      C1967   1.425       .  A
C1967      C1968   1.405       .  A
C1967      C1971   1.518       .  S
C1968      H1972   1.084       .  S
C1969      F1982   1.384       .  S
C1969      F1983   1.382       .  S
C1969      F1984   1.382       .  S
C1971      F1979   1.385       .  S
C1971      F1980   1.384       .  S
C1971      F1981   1.383       .  S
C1985      C1986   1.408       .  A
C1985      C1990   1.418       .  A
C1985      H1995   1.083       .  S
C1986      C1991   1.497       .  S
C1986      C1987   1.419       .  A
C1987      C1988   1.406       .  A
C1987      C1992   1.521       .  S
C1988      C1989   1.406       .  A
C1988      H1993   1.082       .  S
C1989      C1990   1.420       .  A
C1990      C1994   1.518       .  S
C1991      C1996   1.416       .  A
C1991      C2000   1.400       .  A
C1992      F2008   1.383       .  S
C1992      F2009   1.381       .  S
C1992      F2010   1.384       .  S
C1994      F2005   1.382       .  S
C1994      F2006   1.384       .  S
C1994      F2007   1.384       .  S
C1996      C1997   1.415       .  A
C1996      C2001   1.517       .  S
C1997      C1998   1.411       .  A
C1997      H2002   1.083       .  S
C1998      C1999   1.428       .  A
C1999      C2000   1.412       .  A
C1999      C2003   1.519       .  S
C2000      H2004   1.083       .  S
C2001      F2014   1.385       .  S
C2001      F2015   1.383       .  S
C2001      F2016   1.383       .  S
C2003      F2011   1.382       .  S
C2003      F2012   1.382       .  S
C2003      F2013   1.385       .  S
C2017      C2018   1.406       .  A
C2017      C2022   1.408       .  A
C2017      H2027   1.083       .  S
C2018      C2023   1.462       .  S
C2018      C2019   1.407       .  A
C2019      C2020   1.390       .  A
C2019      C2024   1.525       .  S
C2020      C2021   1.406       .  A
C2020      H2025   1.081       .  S
C2021      C2022   1.408       .  A
C2022      C2026   1.513       .  S
C2023      C2028   1.414       .  A
C2023      C2032   1.398       .  A
C2024      F2040   1.382       .  S
C2024      F2041   1.382       .  S
C2024      F2042   1.385       .  S
C2026      F2037   1.385       .  S
C2026      F2038   1.382       .  S
C2026      F2039   1.383       .  S
C2028      C2029   1.398       .  A
C2028      C2033   1.521       .  S
C2029      C2030   1.400       .  A
C2029      H2034   1.084       .  S
C2030      C2031   1.415       .  A
C2031      C2032   1.396       .  A
C2031      C2035   1.518       .  S
C2032      H2036   1.085       .  S
C2033      F2046   1.384       .  S
C2033      F2047   1.382       .  S
C2033      F2048   1.382       .  S
C2035      F2043   1.384       .  S
C2035      F2044   1.383       .  S
C2035      F2045   1.384       .  S
C2049      C2050   1.398       .  A
C2049      C2054   1.400       .  A
C2049      H2059   1.084       .  S
C2050      C2055   1.467       .  S
C2050      C2051   1.410       .  A
C2051      C2052   1.400       .  A
C2051      C2056   1.520       .  S
C2052      C2053   1.407       .  A
C2052      H2057   1.081       .  S
C2053      C2054   1.421       .  A
C2054      C2058   1.520       .  S
C2055      C2060   1.416       .  A
C2055      C2064   1.396       .  A
C2056      F2072   1.382       .  S
C2056      F2073   1.382       .  S
C2056      F2074   1.385       .  S
C2058      F2069   1.385       .  S
C2058      F2070   1.384       .  S
C2058      F2071   1.383       .  S
C2060      C2061   1.404       .  A
C2060      C2065   1.519       .  S
C2061      C2062   1.399       .  A
C2061      H2066   1.084       .  S
C2062      C2063   1.414       .  A
C2063      C2064   1.397       .  A
C2063      C2067   1.515       .  S
C2064      H2068   1.084       .  S
C2065      F2078   1.385       .  S
C2065      F2079   1.382       .  S
C2065      F2080   1.382       .  S
C2067      F2075   1.384       .  S
C2067      F2076   1.381       .  S
C2067      F2077   1.381       .  S
C2081      C2082   1.406       .  A
C2081      C2086   1.420       .  A
C2081      H2091   1.083       .  S
C2082      C2087   1.510       .  S
C2082      C2083   1.418       .  A
C2083      C2084   1.413       .  A
C2083      C2088   1.520       .  S
C2084      C2085   1.412       .  A
C2084      H2089   1.082       .  S
C2085      C2086   1.427       .  A
C2086      C2090   1.516       .  S
C2087      C2092   1.423       .  A
C2087      C2096   1.407       .  A
C2088      F2104   1.382       .  S
C2088      F2105   1.383       .  S
C2088      F2106   1.385       .  S
C2090      F2101   1.380       .  S
C2090      F2102   1.385       .  S
C2090      F2103   1.381       .  S
C2092      C2093   1.416       .  A
C2092      C2097   1.519       .  S
C2093      C2094   1.404       .  A
C2093      H2098   1.083       .  S
C2094      C2095   1.417       .  A
C2095      C2096   1.416       .  A
C2095      C2099   1.516       .  S
C2096      H2100   1.082       .  S
C2097      F2110   1.385       .  S
C2097      F2111   1.382       .  S
C2097      F2112   1.383       .  S
C2099      F2107   1.383       .  S
C2099      F2108   1.383       .  S
C2099      F2109   1.385       .  S
C2113      C2114   1.406       .  A
C2113      C2118   1.418       .  A
C2113      H2123   1.083       .  S
C2114      C2119   1.509       .  S
C2114      C2115   1.418       .  A
C2115      C2116   1.417       .  A
C2115      C2120   1.520       .  S
C2116      C2117   1.412       .  A
C2116      H2121   1.082       .  S
C2117      C2118   1.424       .  A
C2118      C2122   1.517       .  S
C2119      C2124   1.420       .  A
C2119      C2128   1.405       .  A
C2120      F2136   1.382   1_545  S
C2120      F2137   1.382       .  S
C2120      F2138   1.383       .  S
C2122      F2133   1.383       .  S
C2122      F2134   1.385       .  S
C2122      F2135   1.383       .  S
C2124      C2125   1.415       .  A
C2124      C2129   1.518       .  S
C2125      C2126   1.407       .  A
C2125      H2130   1.082       .  S
C2126      C2127   1.425   1_545  A
C2127      C2128   1.418   1_565  A
C2127      C2131   1.519       .  S
C2128      H2132   1.082       .  S
C2129      F2142   1.384       .  S
C2129      F2143   1.382       .  S
C2129      F2144   1.382       .  S
C2131      F2139   1.385       .  S
C2131      F2140   1.382       .  S
C2131      F2141   1.383       .  S
C2145      C2146   1.404       .  A
C2145      C2150   1.405       .  A
C2145      H2155   1.084       .  S
C2146      C2151   1.455   1_545  S
C2146      C2147   1.405       .  A
C2147      C2148   1.386       .  A
C2147      C2152   1.525   1_545  S
C2148      C2149   1.407       .  A
C2148      H2153   1.081       .  S
C2149      C2150   1.411       .  A
C2150      C2154   1.515       .  S
C2151      C2156   1.410       .  A
C2151      C2160   1.398       .  A
C2152      F2168   1.382       .  S
C2152      F2169   1.382       .  S
C2152      F2170   1.385   1_565  S
C2154      F2165   1.383       .  S
C2154      F2166   1.385       .  S
C2154      F2167   1.383       .  S
C2156      C2157   1.393       .  A
C2156      C2161   1.520       .  S
C2157      C2158   1.399       .  A
C2157      H2162   1.084       .  S
C2158      C2159   1.415       .  A
C2159      C2160   1.399       .  A
C2159      C2163   1.519       .  S
C2160      H2164   1.083       .  S
C2161      F2174   1.382       .  S
C2161      F2175   1.382   1_565  S
C2161      F2176   1.382       .  S
C2163      F2171   1.385       .  S
C2163      F2172   1.380       .  S
C2163      F2173   1.382       .  S
C2177      C2178   1.395       .  A
C2177      C2182   1.405       .  A
C2177      H2187   1.083       .  S
C2178      C2183   1.483       .  S
C2178      C2179   1.414       .  A
C2179      C2180   1.409       .  A
C2179      C2184   1.519       .  S
C2180      C2181   1.410       .  A
C2180      H2185   1.082       .  S
C2181      C2182   1.429       .  A
C2182      C2186   1.522       .  S
C2183      C2188   1.417       .  A
C2183      C2192   1.401       .  A
C2184      F2200   1.382       .  S
C2184      F2201   1.383       .  S
C2184      F2202   1.385       .  S
C2186      F2197   1.383       .  S
C2186      F2198   1.385       .  S
C2186      F2199   1.383       .  S
C2188      C2189   1.404       .  A
C2188      C2193   1.519       .  S
C2189      C2190   1.399       .  A
C2189      H2194   1.082       .  S
C2190      C2191   1.419       .  A
C2191      C2192   1.408       .  A
C2191      C2195   1.518       .  S
C2192      H2196   1.083       .  S
C2193      F2206   1.385       .  S
C2193      F2207   1.382       .  S
C2193      F2208   1.382       .  S
C2195      F2203   1.385       .  S
C2195      F2204   1.382       .  S
C2195      F2205   1.382       .  S
C2209      C2210   1.405       .  A
C2209      C2214   1.416       .  A
C2209      H2219   1.083       .  S
C2210      C2215   1.501       .  S
C2210      C2211   1.414       .  A
C2211      C2212   1.411       .  A
C2211      C2216   1.521       .  S
C2212      C2213   1.416       .  A
C2212      H2217   1.082       .  S
C2213      C2214   1.426       .  A
C2214      C2218   1.518       .  S
C2215      C2220   1.415       .  A
C2215      C2224   1.404       .  A
C2216      F2232   1.382       .  S
C2216      F2233   1.381       .  S
C2216      F2234   1.385       .  S
C2218      F2229   1.385       .  S
C2218      F2230   1.382       .  S
C2218      F2231   1.383       .  S
C2220      C2221   1.412       .  A
C2220      C2225   1.520       .  S
C2221      C2222   1.413       .  A
C2221      H2226   1.082       .  S
C2222      C2223   1.428       .  A
C2223      C2224   1.416       .  A
C2223      C2227   1.520       .  S
C2224      H2228   1.083       .  S
C2225      F2238   1.384       .  S
C2225      F2239   1.382       .  S
C2225      F2240   1.382       .  S
C2227      F2235   1.383       .  S
C2227      F2236   1.383       .  S
C2227      F2237   1.385       .  S
C2241      C2242   1.404       .  A
C2241      C2246   1.415       .  A
C2241      H2251   1.083       .  S
C2242      C2247   1.508       .  S
C2242      C2243   1.423       .  A
C2243      C2244   1.415       .  A
C2243      C2248   1.517       .  S
C2244      C2245   1.403       .  A
C2244      H2249   1.083       .  S
C2245      C2246   1.423       .  A
C2246      C2250   1.519       .  S
C2247      C2252   1.417       .  A
C2247      C2256   1.404       .  A
C2248      F2264   1.381       .  S
C2248      F2265   1.379       .  S
C2248      F2266   1.384       .  S
C2250      F2261   1.383       .  S
C2250      F2262   1.384       .  S
C2250      F2263   1.382       .  S
C2252      C2253   1.417       .  A
C2252      C2257   1.520       .  S
C2253      C2254   1.414       .  A
C2253      H2258   1.081       .  S
C2254      C2255   1.427       .  A
C2255      C2256   1.418       .  A
C2255      C2259   1.516       .  S
C2256      H2260   1.083       .  S
C2257      F2270   1.384       .  S
C2257      F2271   1.382       .  S
C2257      F2272   1.383       .  S
C2259      F2267   1.385       .  S
C2259      F2268   1.383       .  S
C2259      F2269   1.382       .  S
C2273      C2274   1.405       .  A
C2273      C2278   1.405       .  A
C2273      H2283   1.083       .  S
C2274      C2279   1.469       .  S
C2274      C2275   1.412       .  A
C2275      C2276   1.397       .  A
C2275      C2280   1.522       .  S
C2276      C2277   1.404       .  A
C2276      H2281   1.084       .  S
C2277      C2278   1.408       .  A
C2278      C2282   1.515       .  S
C2279      C2284   1.417       .  A
C2279      C2288   1.388       .  A
C2280      F2296   1.382       .  S
C2280      F2297   1.382       .  S
C2280      F2298   1.385       .  S
C2282      F2293   1.384       .  S
C2282      F2294   1.382       .  S
C2282      F2295   1.380       .  S
C2284      C2285   1.408       .  A
C2284      C2289   1.515       .  S
C2285      C2286   1.399       .  A
C2285      H2290   1.082       .  S
C2286      C2287   1.416       .  A
C2287      C2288   1.390       .  A
C2287      C2291   1.502       .  S
C2288      H2292   1.084       .  S
C2289      F2302   1.385       .  S
C2289      F2303   1.380       .  S
C2289      F2304   1.382       .  S
C2291      F2299   1.378       .  S
C2291      F2300   1.380       .  S
C2291      F2301   1.384       .  S
C2305      C2306   1.404       .  A
C2305      C2310   1.409       .  A
C2305      H2315   1.083       .  S
C2306      C2311   1.482       .  S
C2306      C2307   1.414       .  A
C2307      C2308   1.402       .  A
C2307      C2312   1.520       .  S
C2308      C2309   1.403       .  A
C2308      H2313   1.083       .  S
C2309      C2310   1.416       .  A
C2310      C2314   1.518       .  S
C2311      C2316   1.415       .  A
C2311      C2320   1.399       .  A
C2312      F2328   1.382       .  S
C2312      F2329   1.382       .  S
C2312      F2330   1.384       .  S
C2314      F2325   1.382       .  S
C2314      F2326   1.385       .  S
C2314      F2327   1.384   1_565  S
C2316      C2317   1.406       .  A
C2316      C2321   1.518       .  S
C2317      C2318   1.403       .  A
C2317      H2322   1.083       .  S
C2318      C2319   1.422       .  A
C2319      C2320   1.405       .  A
C2319      C2323   1.518       .  S
C2320      H2324   1.083       .  S
C2321      F2334   1.385       .  S
C2321      F2335   1.382       .  S
C2321      F2336   1.383       .  S
C2323      F2331   1.385       .  S
C2323      F2332   1.380       .  S
C2323      F2333   1.382       .  S
C2337      C2338   1.399       .  A
C2337      C2342   1.398       .  A
C2337      H2347   1.084       .  S
C2338      C2343   1.459       .  S
C2338      C2339   1.413       .  A
C2339      C2340   1.395       .  A
C2339      C2344   1.521       .  S
C2340      C2341   1.405       .  A
C2340      H2345   1.086       .  S
C2341      C2342   1.416       .  A
C2342      C2346   1.517       .  S
C2343      C2348   1.406       .  A
C2343      C2352   1.406       .  A
C2344      F2360   1.383       .  S
C2344      F2361   1.381       .  S
C2344      F2362   1.383       .  S
C2346      F2357   1.385       .  S
C2346      F2358   1.378       .  S
C2346      F2359   1.383       .  S
C2348      C2349   1.391       .  A
C2348      C2353   1.521       .  S
C2349      C2350   1.404       .  A
C2349      H2354   1.081       .  S
C2350      C2351   1.407       .  A
C2351      C2352   1.405       .  A
C2351      C2355   1.514       .  S
C2352      H2356   1.083       .  S
C2353      F2366   1.384       .  S
C2353      F2367   1.382       .  S
C2353      F2368   1.383       .  S
C2355      F2363   1.384       .  S
C2355      F2364   1.384       .  S
C2355      F2365   1.382       .  S
C2369      C2370   1.400       .  A
C2369      C2374   1.414       .  A
C2369      H2379   1.083       .  S
C2370      C2375   1.491       .  S
C2370      C2371   1.413       .  A
C2371      C2372   1.407       .  A
C2371      C2376   1.521       .  S
C2372      C2373   1.412       .  A
C2372      H2377   1.082       .  S
C2373      C2374   1.430       .  A
C2374      C2378   1.520       .  S
C2375      C2380   1.414       .  A
C2375      C2384   1.397       .  A
C2376      F2392   1.382       .  S
C2376      F2393   1.383       .  S
C2376      F2394   1.384       .  S
C2378      F2389   1.383       .  S
C2378      F2390   1.385       .  S
C2378      F2391   1.383       .  S
C2380      C2381   1.411       .  A
C2380      C2385   1.519       .  S
C2381      C2382   1.412       .  A
C2381      H2386   1.083       .  S
C2382      C2383   1.433       .  A
C2383      C2384   1.410       .  A
C2383      C2387   1.523   1_556  S
C2384      H2388   1.083       .  S
C2385      F2398   1.384       .  S
C2385      F2399   1.383       .  S
C2385      F2400   1.382       .  S
C2387      F2395   1.384       .  S
C2387      F2396   1.383       .  S
C2387      F2397   1.385       .  S
C2401      C2402   1.406       .  A
C2401      C2406   1.412       .  A
C2401      H2411   1.083       .  S
C2402      C2407   1.485       .  S
C2402      C2403   1.421       .  A
C2403      C2404   1.402       .  A
C2403      C2408   1.522       .  S
C2404      C2405   1.400       .  A
C2404      H2409   1.086       .  S
C2405      C2406   1.415       .  A
C2406      C2410   1.518       .  S
C2407      C2412   1.412       .  A
C2407      C2416   1.401       .  A
C2408      F2424   1.383       .  S
C2408      F2425   1.381       .  S
C2408      F2426   1.383       .  S
C2410      F2421   1.385       .  S
C2410      F2422   1.383       .  S
C2410      F2423   1.382       .  S
C2412      C2413   1.406       .  A
C2412      C2417   1.517       .  S
C2413      C2414   1.411       .  A
C2413      H2418   1.082       .  S
C2414      C2415   1.426       .  A
C2415      C2416   1.410       .  A
C2415      C2419   1.520       .  S
C2416      H2420   1.083       .  S
C2417      F2430   1.385       .  S
C2417      F2431   1.383       .  S
C2417      F2432   1.381       .  S
C2419      F2427   1.385       .  S
C2419      F2428   1.383       .  S
C2419      F2429   1.385       .  S
C2433      C2434   1.402       .  A
C2433      C2438   1.411       .  A
C2433      H2443   1.083       .  S
C2434      C2439   1.498       .  S
C2434      C2435   1.419       .  A
C2435      C2436   1.410       .  A
C2435      C2440   1.516       .  S
C2436      C2437   1.403       .  A
C2436      H2441   1.083       .  S
C2437      C2438   1.423       .  A
C2438      C2442   1.519       .  S
C2439      C2444   1.414       .  A
C2439      C2448   1.402       .  A
C2440      F2456   1.379       .  S
C2440      F2457   1.381       .  S
C2440      F2458   1.385       .  S
C2442      F2453   1.385       .  S
C2442      F2454   1.383   1_565  S
C2442      F2455   1.383       .  S
C2444      C2445   1.412       .  A
C2444      C2449   1.521       .  S
C2445      C2446   1.414       .  A
C2445      H2450   1.082       .  S
C2446      C2447   1.430       .  A
C2447      C2448   1.416       .  A
C2447      C2451   1.520       .  S
C2448      H2452   1.083       .  S
C2449      F2462   1.384       .  S
C2449      F2463   1.383       .  S
C2449      F2464   1.382       .  S
C2451      F2459   1.385       .  S
C2451      F2460   1.383       .  S
C2451      F2461   1.382       .  S
C2465      C2466   1.399       .  A
C2465      C2470   1.401       .  A
C2465      H2475   1.084       .  S
C2466      C2471   1.475       .  S
C2466      C2467   1.415       .  A
C2467      C2468   1.406       .  A
C2467      C2472   1.519       .  S
C2468      C2469   1.402       .  A
C2468      H2473   1.084       .  S
C2469      C2470   1.417       .  A
C2470      C2474   1.518       .  S
C2471      C2476   1.413       .  A
C2471      C2480   1.401       .  A
C2472      F2488   1.382       .  S
C2472      F2489   1.382       .  S
C2472      F2490   1.385       .  S
C2474      F2485   1.381       .  S
C2474      F2486   1.385       .  S
C2474      F2487   1.381       .  S
C2476      C2477   1.403       .  A
C2476      C2481   1.521       .  S
C2477      C2478   1.406       .  A
C2477      H2482   1.083       .  S
C2478      C2479   1.416       .  A
C2479      C2480   1.404       .  A
C2479      C2483   1.519       .  S
C2480      H2484   1.083       .  S
C2481      F2494   1.384       .  S
C2481      F2495   1.382       .  S
C2481      F2496   1.382       .  S
C2483      F2491   1.384       .  S
C2483      F2492   1.383       .  S
C2483      F2493   1.382       .  S
C2497      C2498   1.400       .  A
C2497      C2502   1.407       .  A
C2497      H2507   1.083       .  S
C2498      C2503   1.488       .  S
C2498      C2499   1.419       .  A
C2499      C2500   1.410       .  A
C2499      C2504   1.520       .  S
C2500      C2501   1.404       .  A
C2500      H2505   1.083       .  S
C2501      C2502   1.420       .  A
C2502      C2506   1.517       .  S
C2503      C2508   1.416       .  A
C2503      C2512   1.403       .  A
C2504      F2520   1.382       .  S
C2504      F2521   1.381       .  S
C2504      F2522   1.385       .  S
C2506      F2517   1.385       .  S
C2506      F2518   1.382       .  S
C2506      F2519   1.382       .  S
C2508      C2509   1.412       .  A
C2508      C2513   1.518       .  S
C2509      C2510   1.405       .  A
C2509      H2514   1.082       .  S
C2510      C2511   1.414       .  A
C2511      C2512   1.407       .  A
C2511      C2515   1.515       .  S
C2512      H2516   1.083       .  S
C2513      F2526   1.384       .  S
C2513      F2527   1.383       .  S
C2513      F2528   1.382       .  S
C2515      F2523   1.384       .  S
C2515      F2524   1.383       .  S
C2515      F2525   1.383       .  S
C2529      C2530   1.396       .  A
C2529      C2534   1.409       .  A
C2529      H2539   1.083       .  S
C2530      C2535   1.487       .  S
C2530      C2531   1.414       .  A
C2531      C2532   1.410       .  A
C2531      C2536   1.519       .  S
C2532      C2533   1.410       .  A
C2532      H2537   1.082       .  S
C2533      C2534   1.432       .  A
C2534      C2538   1.522       .  S
C2535      C2540   1.416       .  A
C2535      C2544   1.400       .  A
C2536      F2552   1.383       .  S
C2536      F2553   1.382       .  S
C2536      F2554   1.384       .  S
C2538      F2549   1.382       .  S
C2538      F2550   1.385       .  S
C2538      F2551   1.384       .  S
C2540      C2541   1.408       .  A
C2540      C2545   1.522       .  S
C2541      C2542   1.407       .  A
C2541      H2546   1.081       .  S
C2542      C2543   1.424       .  A
C2543      C2544   1.410       .  A
C2543      C2547   1.519       .  S
C2544      H2548   1.084       .  S
C2545      F2558   1.385       .  S
C2545      F2559   1.382       .  S
C2545      F2560   1.382       .  S
C2547      F2555   1.385       .  S
C2547      F2556   1.384       .  S
C2547      F2557   1.383       .  S
C2561      C2562   1.401       .  A
C2561      C2566   1.412       .  A
C2561      H2571   1.083       .  S
C2562      C2567   1.494       .  S
C2562      C2563   1.414       .  A
C2563      C2564   1.411       .  A
C2563      C2568   1.519       .  S
C2564      C2565   1.412       .  A
C2564      H2569   1.082       .  S
C2565      C2566   1.428       .  A
C2566      C2570   1.521       .  S
C2567      C2572   1.415       .  A
C2567      C2576   1.407       .  A
C2568      F2584   1.382       .  S
C2568      F2585   1.382       .  S
C2568      F2586   1.385       .  S
C2570      F2581   1.383       .  S
C2570      F2582   1.385       .  S
C2570      F2583   1.383       .  S
C2572      C2573   1.407       .  A
C2572      C2577   1.521       .  S
C2573      C2574   1.405       .  A
C2573      H2578   1.081       .  S
C2574      C2575   1.415       .  A
C2575      C2576   1.416       .  A
C2575      C2579   1.511       .  S
C2576      H2580   1.083       .  S
C2577      F2590   1.383       .  S
C2577      F2591   1.382       .  S
C2577      F2592   1.382       .  S
C2579      F2587   1.385       .  S
C2579      F2588   1.380       .  S
C2579      F2589   1.379       .  S
C2593      C2594   1.395       .  A
C2593      C2598   1.400       .  A
C2593      H2603   1.084       .  S
C2594      C2599   1.473       .  S
C2594      C2595   1.414       .  A
C2595      C2596   1.405       .  A
C2595      C2600   1.519       .  S
C2596      C2597   1.403       .  A
C2596      H2601   1.083       .  S
C2597      C2598   1.424       .  A
C2598      C2602   1.521       .  S
C2599      C2604   1.412       .  A
C2599      C2608   1.395       .  A
C2600      F2616   1.382       .  S
C2600      F2617   1.381       .  S
C2600      F2618   1.385       .  S
C2602      F2613   1.385       .  S
C2602      F2614   1.382       .  S
C2602      F2615   1.381       .  S
C2604      C2605   1.404       .  A
C2604      C2609   1.519       .  S
C2605      C2606   1.407       .  A
C2605      H2610   1.083       .  S
C2606      C2607   1.429       .  A
C2607      C2608   1.402       .  A
C2607      C2611   1.524       .  S
C2608      H2612   1.084       .  S
C2609      F2622   1.384       .  S
C2609      F2623   1.382       .  S
C2609      F2624   1.381       .  S
C2611      F2619   1.385       .  S
C2611      F2620   1.383       .  S
C2611      F2621   1.380       .  S
C2625      C2626   1.405       .  A
C2625      C2630   1.415       .  A
C2625      H2635   1.083       .  S
C2626      C2631   1.498       .  S
C2626      C2627   1.421       .  A
C2627      C2628   1.409       .  A
C2627      C2632   1.519       .  S
C2628      C2629   1.405       .  A
C2628      H2633   1.084       .  S
C2629      C2630   1.423       .  A
C2630      C2634   1.519       .  S
C2631      C2636   1.418       .  A
C2631      C2640   1.409       .  A
C2632      F2648   1.383       .  S
C2632      F2649   1.380       .  S
C2632      F2650   1.384       .  S
C2634      F2645   1.381       .  S
C2634      F2646   1.384       .  S
C2634      F2647   1.383       .  S
C2636      C2637   1.411       .  A
C2636      C2641   1.520       .  S
C2637      C2638   1.406       .  A
C2637      H2642   1.083       .  S
C2638      C2639   1.412       .  A
C2639      C2640   1.416       .  A
C2639      C2643   1.513       .  S
C2640      H2644   1.082       .  S
C2641      F2654   1.385       .  S
C2641      F2655   1.382       .  S
C2641      F2656   1.383       .  S
C2643      F2651   1.384       .  S
C2643      F2652   1.384       .  S
C2643      F2653   1.383       .  S
C2657      C2658   1.405       .  A
C2657      C2662   1.417       .  A
C2657      H2667   1.083       .  S
C2658      C2663   1.504       .  S
C2658      C2659   1.416       .  A
C2659      C2660   1.413       .  A
C2659      C2664   1.520       .  S
C2660      C2661   1.412       .  A
C2660      H2665   1.083       .  S
C2661      C2662   1.425       .  A
C2662      C2666   1.519       .  S
C2663      C2668   1.417       .  A
C2663      C2672   1.402       .  A
C2664      F2680   1.382       .  S
C2664      F2681   1.382       .  S
C2664      F2682   1.384       .  S
C2666      F2677   1.382       .  S
C2666      F2678   1.385       .  S
C2666      F2679   1.384       .  S
C2668      C2669   1.414       .  A
C2668      C2673   1.519       .  S
C2669      C2670   1.411       .  A
C2669      H2674   1.083       .  S
C2670      C2671   1.430       .  A
C2671      C2672   1.416       .  A
C2671      C2675   1.520       .  S
C2672      H2676   1.083       .  S
C2673      F2686   1.384       .  S
C2673      F2687   1.382       .  S
C2673      F2688   1.382       .  S
C2675      F2683   1.383       .  S
C2675      F2684   1.383       .  S
C2675      F2685   1.385       .  S
C2689      C2690   1.397       .  A
C2689      C2694   1.394       .  A
C2689      H2699   1.085       .  S
C2690      C2695   1.465       .  S
C2690      C2691   1.416       .  A
C2691      C2692   1.404       .  A
C2691      C2696   1.519       .  S
C2692      C2693   1.402       .  A
C2692      H2697   1.083       .  S
C2693      C2694   1.416       .  A
C2694      C2698   1.516       .  S
C2695      C2700   1.414       .  A
C2695      C2704   1.386       .  A
C2696      F2712   1.383       .  S
C2696      F2713   1.382       .  S
C2696      F2714   1.384       .  S
C2698      F2709   1.383       .  S
C2698      F2710   1.385       .  S
C2698      F2711   1.381       .  S
C2700      C2701   1.410       .  A
C2700      C2705   1.515       .  S
C2701      C2702   1.403       .  A
C2701      H2706   1.083       .  S
C2702      C2703   1.428       .  A
C2703      C2704   1.389       .  A
C2703      C2707   1.520       .  S
C2704      H2708   1.084       .  S
C2705      F2718   1.384       .  S
C2705      F2719   1.383       .  S
C2705      F2720   1.382       .  S
C2707      F2715   1.385       .  S
C2707      F2716   1.377       .  S
C2707      F2717   1.379       .  S
C2721      C2722   1.403       .  A
C2721      C2726   1.406       .  A
C2721      H2731   1.083       .  S
C2722      C2727   1.482       .  S
C2722      C2723   1.418       .  A
C2723      C2724   1.405       .  A
C2723      C2728   1.521       .  S
C2724      C2725   1.401       .  A
C2724      H2729   1.084       .  S
C2725      C2726   1.415       .  A
C2726      C2730   1.517       .  S
C2727      C2732   1.416       .  A
C2727      C2736   1.397       .  A
C2728      F2744   1.382       .  S
C2728      F2745   1.382       .  S
C2728      F2746   1.385       .  S
C2730      F2741   1.383       .  S
C2730      F2742   1.384       .  S
C2730      F2743   1.382       .  S
C2732      C2733   1.410       .  A
C2732      C2737   1.518       .  S
C2733      C2734   1.405       .  A
C2733      H2738   1.083       .  S
C2734      C2735   1.423       .  A
C2735      C2736   1.401       .  A
C2735      C2739   1.521       .  S
C2736      H2740   1.083       .  S
C2737      F2750   1.385       .  S
C2737      F2751   1.382       .  S
C2737      F2752   1.382       .  S
C2739      F2747   1.385       .  S
C2739      F2748   1.381       .  S
C2739      F2749   1.382       .  S
C2753      C2754   1.395       .  A
C2753      C2758   1.403       .  A
C2753      H2763   1.084       .  S
C2754      C2759   1.479       .  S
C2754      C2755   1.413       .  A
C2755      C2756   1.408       .  A
C2755      C2760   1.519       .  S
C2756      C2757   1.409       .  A
C2756      H2761   1.082       .  S
C2757      C2758   1.430       .  A
C2758      C2762   1.521       .  S
C2759      C2764   1.415       .  A
C2759      C2768   1.399       .  A
C2760      F2776   1.383       .  S
C2760      F2777   1.381       .  S
C2760      F2778   1.384       .  S
C2762      F2773   1.383       .  S
C2762      F2774   1.385       .  S
C2762      F2775   1.383       .  S
C2764      C2765   1.405       .  A
C2764      C2769   1.522       .  S
C2765      C2766   1.408       .  A
C2765      H2770   1.083       .  S
C2766      C2767   1.421       .  A
C2767      C2768   1.406       .  A
C2767      C2771   1.517       .  S
C2768      H2772   1.084       .  S
C2769      F2782   1.385       .  S
C2769      F2783   1.383       .  S
C2769      F2784   1.381       .  S
C2771      F2779   1.385       .  S
C2771      F2780   1.384       .  S
C2771      F2781   1.382       .  S
C2785      C2786   1.409       .  A
C2785      C2790   1.420       .  A
C2785      H2795   1.081       .  S
C2786      C2791   1.503   1_455  S
C2786      C2787   1.416       .  A
C2787      C2788   1.409       .  A
C2787      C2792   1.522   1_455  S
C2788      C2789   1.407       .  A
C2788      H2793   1.073       .  S
C2789      C2790   1.418       .  A
C2790      C2794   1.514       .  S
C2791      C2796   1.415       .  A
C2791      C2800   1.403   1_655  A
C2792      F2808   1.382       .  S
C2792      F2809   1.384       .  S
C2792      F2810   1.382   1_655  S
C2794      F2805   1.382       .  S
C2794      F2806   1.384       .  S
C2794      F2807   1.382       .  S
C2796      C2797   1.413       .  A
C2796      C2801   1.520       .  S
C2797      C2798   1.414       .  A
C2797      H2802   1.082       .  S
C2798      C2799   1.430       .  A
C2799      C2800   1.416   1_655  A
C2799      C2803   1.521   1_655  S
C2800      H2804   1.083       .  S
C2801      F2814   1.385       .  S
C2801      F2815   1.382       .  S
C2801      F2816   1.382       .  S
C2803      F2811   1.383       .  S
C2803      F2812   1.383       .  S
C2803      F2813   1.385       .  S
C2817      C2818   1.406       .  A
C2817      C2822   1.407       .  A
C2817      H2827   1.083       .  S
C2818      C2823   1.460       .  S
C2818      C2819   1.405   1_655  A
C2819      C2820   1.389       .  A
C2819      C2824   1.524       .  S
C2820      C2821   1.408       .  A
C2820      H2825   1.080       .  S
C2821      C2822   1.407   1_455  A
C2822      C2826   1.512       .  S
C2823      C2828   1.415   1_655  A
C2823      C2832   1.397       .  A
C2824      F2840   1.382       .  S
C2824      F2841   1.382       .  S
C2824      F2842   1.385       .  S
C2826      F2837   1.383       .  S
C2826      F2838   1.384       .  S
C2826      F2839   1.383       .  S
C2828      C2829   1.399   1_455  A
C2828      C2833   1.523       .  S
C2829      C2830   1.400       .  A
C2829      H2834   1.084       .  S
C2830      C2831   1.415       .  A
C2831      C2832   1.396       .  A
C2831      C2835   1.518       .  S
C2832      H2836   1.085       .  S
C2833      F2846   1.385       .  S
C2833      F2847   1.382   1_455  S
C2833      F2848   1.382       .  S
C2835      F2843   1.383       .  S
C2835      F2844   1.383       .  S
C2835      F2845   1.384       .  S
C2849      C2850   1.399       .  A
C2849      C2854   1.404       .  A
C2849      H2859   1.083       .  S
C2850      C2855   1.473       .  S
C2850      C2851   1.413       .  A
C2851      C2852   1.402       .  A
C2851      C2856   1.521       .  S
C2852      C2853   1.406       .  A
C2852      H2857   1.083       .  S
C2853      C2854   1.422       .  A
C2854      C2858   1.521       .  S
C2855      C2860   1.412       .  A
C2855      C2864   1.394       .  A
C2856      F2872   1.382       .  S
C2856      F2873   1.381       .  S
C2856      F2874   1.385       .  S
C2858      F2869   1.381       .  S
C2858      F2870   1.385       .  S
C2858      F2871   1.383       .  S
C2860      C2861   1.406       .  A
C2860      C2865   1.519       .  S
C2861      C2862   1.406       .  A
C2861      H2866   1.083       .  S
C2862      C2863   1.429       .  A
C2863      C2864   1.399       .  A
C2863      C2867   1.525       .  S
C2864      H2868   1.084       .  S
C2865      F2878   1.385       .  S
C2865      F2879   1.383       .  S
C2865      F2880   1.381       .  S
C2867      F2875   1.383       .  S
C2867      F2876   1.381       .  S
C2867      F2877   1.385       .  S
C2881      C2882   1.396       .  A
C2881      C2886   1.401       .  A
C2881      H2891   1.084       .  S
C2882      C2887   1.474       .  S
C2882      C2883   1.411       .  A
C2883      C2884   1.407       .  A
C2883      C2888   1.516       .  S
C2884      C2885   1.408       .  A
C2884      H2889   1.083       .  S
C2885      C2886   1.425       .  A
C2886      C2890   1.520       .  S
C2887      C2892   1.414       .  A
C2887      C2896   1.398       .  A
C2888      F2904   1.383       .  S
C2888      F2905   1.383       .  S
C2888      F2906   1.384       .  S
C2890      F2901   1.385       .  S
C2890      F2902   1.382       .  S
C2890      F2903   1.383       .  S
C2892      C2893   1.403       .  A
C2892      C2897   1.518       .  S
C2893      C2894   1.406       .  A
C2893      H2898   1.085       .  S
C2894      C2895   1.426       .  A
C2895      C2896   1.403       .  A
C2895      C2899   1.523       .  S
C2896      H2900   1.084       .  S
C2897      F2910   1.383       .  S
C2897      F2911   1.383       .  S
C2897      F2912   1.382       .  S
C2899      F2907   1.380       .  S
C2899      F2908   1.382       .  S
C2899      F2909   1.385       .  S
C2913      C2914   1.404       .  A
C2913      C2918   1.403       .  A
C2913      H2923   1.084       .  S
C2914      C2919   1.464       .  S
C2914      C2915   1.409       .  A
C2915      C2916   1.396       .  A
C2915      C2920   1.522       .  S
C2916      C2917   1.411       .  A
C2916      H2921   1.086       .  S
C2917      C2918   1.414       .  A
C2918      C2922   1.518       .  S
C2919      C2924   1.406       .  A
C2919      C2928   1.407       .  A
C2920      F2936   1.383       .  S
C2920      F2937   1.382       .  S
C2920      F2938   1.384       .  S
C2922      F2933   1.385       .  S
C2922      F2934   1.381       .  S
C2922      F2935   1.383       .  S
C2924      C2925   1.390       .  A
C2924      C2929   1.522       .  S
C2925      C2926   1.403       .  A
C2925      H2930   1.088       .  S
C2926      C2927   1.408       .  A
C2927      C2928   1.408       .  A
C2927      C2931   1.513       .  S
C2928      H2932   1.086       .  S
C2929      F2942   1.385       .  S
C2929      F2943   1.382       .  S
C2929      F2944   1.382       .  S
C2931      F2939   1.385       .  S
C2931      F2940   1.382       .  S
C2931      F2941   1.383       .  S
C2945      C2946   1.403       .  A
C2945      C2950   1.414       .  A
C2945      H2955   1.083       .  S
C2946      C2951   1.502       .  S
C2946      C2947   1.417       .  A
C2947      C2948   1.412       .  A
C2947      C2952   1.520       .  S
C2948      C2949   1.409       .  A
C2948      H2953   1.083       .  S
C2949      C2950   1.428       .  A
C2950      C2954   1.520       .  S
C2951      C2956   1.417       .  A
C2951      C2960   1.402       .  A
C2952      F2968   1.381       .  S
C2952      F2969   1.383       .  S
C2952      F2970   1.384       .  S
C2954      F2965   1.383       .  S
C2954      F2966   1.385       .  S
C2954      F2967   1.379       .  S
C2956      C2957   1.412       .  A
C2956      C2961   1.520       .  S
C2957      C2958   1.411       .  A
C2957      H2962   1.082       .  S
C2958      C2959   1.429       .  A
C2959      C2960   1.413       .  A
C2959      C2963   1.522       .  S
C2960      H2964   1.083       .  S
C2961      F2974   1.385       .  S
C2961      F2975   1.381       .  S
C2961      F2976   1.383       .  S
C2963      F2971   1.382       .  S
C2963      F2972   1.382       .  S
C2963      F2973   1.385       .  S
C2977      C2978   1.407       .  A
C2977      C2982   1.418       .  A
C2977      H2987   1.083       .  S
C2978      C2983   1.508       .  S
C2978      C2979   1.419       .  A
C2979      C2980   1.414       .  A
C2979      C2984   1.519       .  S
C2980      C2981   1.405       .  A
C2980      H2985   1.080       .  S
C2981      C2982   1.421       .  A
C2982      C2986   1.517       .  S
C2983      C2988   1.417       .  A
C2983      C2992   1.408       .  A
C2984      F3000   1.382       .  S
C2984      F3001   1.383       .  S
C2984      F3002   1.385       .  S
C2986      F2997   1.380       .  S
C2986      F2998   1.385       .  S
C2986      F2999   1.383       .  S
C2988      C2989   1.412       .  A
C2988      C2993   1.520       .  S
C2989      C2990   1.409       .  A
C2989      H2994   1.083       .  S
C2990      C2991   1.422       .  A
C2991      C2992   1.420       .  A
C2991      C2995   1.517       .  S
C2992      H2996   1.083       .  S
C2993      F3006   1.384       .  S
C2993      F3007   1.382       .  S
C2993      F3008   1.383       .  S
C2995      F3003   1.384       .  S
C2995      F3004   1.384       .  S
C2995      F3005   1.382       .  S
C3009      C3010   1.397       .  A
C3009      C3014   1.404       .  A
C3009      H3019   1.083       .  S
C3010      C3015   1.475       .  S
C3010      C3011   1.410       .  A
C3011      C3012   1.404       .  A
C3011      C3016   1.520       .  S
C3012      C3013   1.412       .  A
C3012      H3017   1.082       .  S
C3013      C3014   1.428       .  A
C3014      C3018   1.522       .  S
C3015      C3020   1.417       .  A
C3015      C3024   1.398       .  A
C3016      F3032   1.383       .  S
C3016      F3033   1.381       .  S
C3016      F3034   1.385   1_455  S
C3018      F3029   1.383       .  S
C3018      F3030   1.385       .  S
C3018      F3031   1.384       .  S
C3020      C3021   1.407       .  A
C3020      C3025   1.520       .  S
C3021      C3022   1.401       .  A
C3021      H3026   1.084       .  S
C3022      C3023   1.416       .  A
C3023      C3024   1.401       .  A
C3023      C3027   1.517       .  S
C3024      H3028   1.084       .  S
C3025      F3038   1.384       .  S
C3025      F3039   1.383       .  S
C3025      F3040   1.381       .  S
C3027      F3035   1.384       .  S
C3027      F3036   1.382       .  S
C3027      F3037   1.380       .  S
C3041      C3042   1.406       .  A
C3041      C3046   1.413       .  A
C3041      H3051   1.083       .  S
C3042      C3047   1.489       .  S
C3042      C3043   1.418       .  A
C3043      C3044   1.404       .  A
C3043      C3048   1.520       .  S
C3044      C3045   1.400       .  A
C3044      H3049   1.083       .  S
C3045      C3046   1.416       .  A
C3046      C3050   1.517       .  S
C3047      C3052   1.411       .  A
C3047      C3056   1.401       .  A
C3048      F3064   1.378       .  S
C3048      F3065   1.381       .  S
C3048      F3066   1.385       .  S
C3050      F3061   1.384       .  S
C3050      F3062   1.383       .  S
C3050      F3063   1.383       .  S
C3052      C3053   1.407       .  A
C3052      C3057   1.520       .  S
C3053      C3054   1.413       .  A
C3053      H3058   1.082       .  S
C3054      C3055   1.428       .  A
C3055      C3056   1.411       .  A
C3055      C3059   1.521       .  S
C3056      H3060   1.083       .  S
C3057      F3070   1.385       .  S
C3057      F3071   1.382       .  S
C3057      F3072   1.382       .  S
C3059      F3067   1.384       .  S
C3059      F3068   1.382       .  S
C3059      F3069   1.385       .  S
C3073      C3074   1.397       .  A
C3073      C3078   1.409       .  A
C3073      H3083   1.083       .  S
C3074      C3079   1.489       .  S
C3074      C3075   1.414       .  A
C3075      C3076   1.410       .  A
C3075      C3080   1.520       .  S
C3076      C3077   1.412       .  A
C3076      H3081   1.082       .  S
C3077      C3078   1.429       .  A
C3078      C3082   1.517       .  S
C3079      C3084   1.416       .  A
C3079      C3088   1.399       .  A
C3080      F3096   1.382       .  S
C3080      F3097   1.381       .  S
C3080      F3098   1.385       .  S
C3082      F3093   1.382       .  S
C3082      F3094   1.385       .  S
C3082      F3095   1.384       .  S
C3084      C3085   1.409       .  A
C3084      C3089   1.520       .  S
C3085      C3086   1.408       .  A
C3085      H3090   1.083       .  S
C3086      C3087   1.427       .  A
C3087      C3088   1.410       .  A
C3087      C3091   1.521       .  S
C3088      H3092   1.083       .  S
C3089      F3102   1.384       .  S
C3089      F3103   1.382       .  S
C3089      F3104   1.381       .  S
C3091      F3099   1.385       .  S
C3091      F3100   1.384       .  S
C3091      F3101   1.381       .  S
C3105      C3106   1.405       .  A
C3105      C3110   1.416       .  A
C3105      H3115   1.083       .  S
C3106      C3111   1.502       .  S
C3106      C3107   1.417       .  A
C3107      C3108   1.411       .  A
C3107      C3112   1.519   1_655  S
C3108      C3109   1.407       .  A
C3108      H3113   1.083       .  S
C3109      C3110   1.425       .  A
C3110      C3114   1.519       .  S
C3111      C3116   1.420   1_655  A
C3111      C3120   1.407   1_655  A
C3112      F3128   1.381       .  S
C3112      F3129   1.383       .  S
C3112      F3130   1.385       .  S
C3114      F3125   1.385       .  S
C3114      F3126   1.383       .  S
C3114      F3127   1.383       .  S
C3116      C3117   1.413       .  A
C3116      C3121   1.518       .  S
C3117      C3118   1.403       .  A
C3117      H3122   1.083       .  S
C3118      C3119   1.417       .  A
C3119      C3120   1.414       .  A
C3119      C3123   1.518       .  S
C3120      H3124   1.083   1_455  S
C3121      F3134   1.385       .  S
C3121      F3135   1.382   1_455  S
C3121      F3136   1.382       .  S
C3123      F3131   1.385       .  S
C3123      F3132   1.383       .  S
C3123      F3133   1.383       .  S
C3137      C3138   1.399       .  A
C3137      C3142   1.400       .  A
C3137      H3147   1.084       .  S
C3138      C3143   1.470       .  S
C3138      C3139   1.413       .  A
C3139      C3140   1.403       .  A
C3139      C3144   1.521       .  S
C3140      C3141   1.405       .  A
C3140      H3145   1.083       .  S
C3141      C3142   1.417       .  A
C3142      C3146   1.518       .  S
C3143      C3148   1.411       .  A
C3143      C3152   1.402       .  A
C3144      F3160   1.382       .  S
C3144      F3161   1.382       .  S
C3144      F3162   1.384       .  S
C3146      F3157   1.385       .  S
C3146      F3158   1.382       .  S
C3146      F3159   1.384       .  S
C3148      C3149   1.400       .  A
C3148      C3153   1.521       .  S
C3149      C3150   1.405       .  A
C3149      H3154   1.084       .  S
C3150      C3151   1.413       .  A
C3151      C3152   1.401       .  A
C3151      C3155   1.516       .  S
C3152      H3156   1.085       .  S
C3153      F3166   1.385       .  S
C3153      F3167   1.382       .  S
C3153      F3168   1.382       .  S
C3155      F3163   1.383       .  S
C3155      F3164   1.384       .  S
C3155      F3165   1.382       .  S
C3169      C3170   1.401       .  A
C3169      C3174   1.408       .  A
C3169      H3179   1.084       .  S
C3170      C3175   1.493       .  S
C3170      C3171   1.417       .  A
C3171      C3172   1.413       .  A
C3171      C3176   1.519       .  S
C3172      C3173   1.408       .  A
C3172      H3177   1.083       .  S
C3173      C3174   1.421       .  A
C3174      C3178   1.513       .  S
C3175      C3180   1.416       .  A
C3175      C3184   1.403   1_655  A
C3176      F3192   1.383       .  S
C3176      F3193   1.382       .  S
C3176      F3194   1.384       .  S
C3178      F3189   1.385       .  S
C3178      F3190   1.382       .  S
C3178      F3191   1.378       .  S
C3180      C3181   1.410       .  A
C3180      C3185   1.518       .  S
C3181      C3182   1.407   1_655  A
C3181      H3186   1.083       .  S
C3182      C3183   1.421       .  A
C3183      C3184   1.411       .  A
C3183      C3187   1.518       .  S
C3184      H3188   1.083       .  S
C3185      F3198   1.385       .  S
C3185      F3199   1.382       .  S
C3185      F3200   1.382       .  S
C3187      F3195   1.382       .  S
C3187      F3196   1.381   1_565  S
C3187      F3197   1.385       .  S
C3201      C3202   1.399   1_454  A
C3201      C3206   1.395   1_455  A
C3201      H3211   1.084       .  S
C3202      C3207   1.466   1_655  S
C3202      C3203   1.414       .  A
C3203      C3204   1.404       .  A
C3203      C3208   1.518       .  S
C3204      C3205   1.401   1_556  A
C3204      H3209   1.084       .  S
C3205      C3206   1.409       .  A
C3206      C3210   1.513   1_655  S
C3207      C3212   1.413   1_465  A
C3207      C3216   1.388       .  A
C3208      F3224   1.382   1_655  S
C3208      F3225   1.380       .  S
C3208      F3226   1.384       .  S
C3210      F3221   1.376   1_455  S
C3210      F3222   1.384       .  S
C3210      F3223   1.383       .  S
C3212      C3213   1.407   1_655  A
C3212      C3217   1.520       .  S
C3213      C3214   1.405       .  A
C3213      H3218   1.083   1_455  S
C3214      C3215   1.435       .  A
C3215      C3216   1.395   1_545  A
C3215      C3219   1.527       .  S
C3216      H3220   1.084       .  S
C3217      F3230   1.384       .  S
C3217      F3231   1.383   1_556  S
C3217      F3232   1.381       .  S
C3219      F3227   1.385   1_545  S
C3219      F3228   1.380       .  S
C3219      F3229   1.377       .  S
C3233      C3234   1.401       .  A
C3233      C3238   1.418       .  A
C3233      H3243   1.083       .  S
C3234      C3239   1.504   1_455  S
C3234      C3235   1.415   1_455  A
C3235      C3236   1.416   1_655  A
C3235      C3240   1.520       .  S
C3236      C3237   1.415       .  A
C3236      H3241   1.082       .  S
C3237      C3238   1.433       .  A
C3238      C3242   1.518       .  S
C3239      C3244   1.416       .  A
C3239      C3248   1.405       .  A
C3240      F3256   1.383       .  S
C3240      F3257   1.382       .  S
C3240      F3258   1.384       .  S
C3242      F3253   1.385       .  S
C3242      F3254   1.384       .  S
C3242      F3255   1.380       .  S
C3244      C3245   1.413       .  A
C3244      C3249   1.520   1_655  S
C3245      C3246   1.413       .  A
C3245      H3250   1.082   1_556  S
C3246      C3247   1.425       .  A
C3247      C3248   1.418       .  A
C3247      C3251   1.517       .  S
C3248      H3252   1.083       .  S
C3249      F3262   1.385   1_556  S
C3249      F3263   1.382       .  S
C3249      F3264   1.381       .  S
C3251      F3259   1.384       .  S
C3251      F3260   1.382       .  S
C3251      F3261   1.385       .  S
C3265      C3266   1.403       .  A
C3265      C3270   1.400       .  A
C3265      H3275   1.083       .  S
C3266      C3271   1.462       .  S
C3266      C3267   1.411       .  A
C3267      C3268   1.397       .  A
C3267      C3272   1.521       .  S
C3268      C3269   1.401       .  A
C3268      H3273   1.084       .  S
C3269      C3270   1.406       .  A
C3270      C3274   1.515       .  S
C3271      C3276   1.411       .  A
C3271      C3280   1.400       .  A
C3272      F3288   1.382       .  S
C3272      F3289   1.381       .  S
C3272      F3290   1.385       .  S
C3274      F3285   1.384       .  S
C3274      F3286   1.383       .  S
C3274      F3287   1.383       .  S
C3276      C3277   1.397       .  A
C3276      C3281   1.523       .  S
C3277      C3278   1.406       .  A
C3277      H3282   1.083       .  S
C3278      C3279   1.416       .  A
C3279      C3280   1.401       .  A
C3279      C3283   1.519       .  S
C3280      H3284   1.083       .  S
C3281      F3294   1.385       .  S
C3281      F3295   1.382       .  S
C3281      F3296   1.381       .  S
C3283      F3291   1.384       .  S
C3283      F3292   1.383       .  S
C3283      F3293   1.384   1_545  S
C3297      C3298   1.400       .  A
C3297      C3302   1.413       .  A
C3297      H3307   1.083       .  S
C3298      C3303   1.494       .  S
C3298      C3299   1.415       .  A
C3299      C3300   1.411       .  A
C3299      C3304   1.517       .  S
C3300      C3301   1.409       .  A
C3300      H3305   1.082       .  S
C3301      C3302   1.429       .  A
C3302      C3306   1.521   1_546  S
C3303      C3308   1.418       .  A
C3303      C3312   1.406       .  A
C3304      F3320   1.383       .  S
C3304      F3321   1.382       .  S
C3304      F3322   1.384       .  S
C3306      F3317   1.385   1_564  S
C3306      F3318   1.384   1_565  S
C3306      F3319   1.383   1_554  S
C3308      C3309   1.406       .  A
C3308      C3313   1.521       .  S
C3309      C3310   1.407       .  A
C3309      H3314   1.082       .  S
C3310      C3311   1.423       .  A
C3311      C3312   1.417       .  A
C3311      C3315   1.517       .  S
C3312      H3316   1.083       .  S
C3313      F3326   1.384       .  S
C3313      F3327   1.382       .  S
C3313      F3328   1.381       .  S
C3315      F3323   1.383       .  S
C3315      F3324   1.382       .  S
C3315      F3325   1.385       .  S
C3329      C3330   1.402       .  A
C3329      C3334   1.407       .  A
C3329      H3339   1.085       .  S
C3330      C3335   1.491       .  S
C3330      C3331   1.419       .  A
C3331      C3332   1.409       .  A
C3331      C3336   1.520       .  S
C3332      C3333   1.403       .  A
C3332      H3337   1.084       .  S
C3333      C3334   1.420       .  A
C3334      C3338   1.517       .  S
C3335      C3340   1.412       .  A
C3335      C3344   1.401       .  A
C3336      F3352   1.382   1_554  S
C3336      F3353   1.382       .  S
C3336      F3354   1.384   1_554  S
C3338      F3349   1.384       .  S
C3338      F3350   1.383       .  S
C3338      F3351   1.382       .  S
C3340      C3341   1.409       .  A
C3340      C3345   1.519       .  S
C3341      C3342   1.413       .  A
C3341      H3346   1.082       .  S
C3342      C3343   1.427       .  A
C3343      C3344   1.411       .  A
C3343      C3347   1.519       .  S
C3344      H3348   1.083       .  S
C3345      F3358   1.385       .  S
C3345      F3359   1.382       .  S
C3345      F3360   1.382       .  S
C3347      F3355   1.385       .  S
C3347      F3356   1.383       .  S
C3347      F3357   1.383   1_554  S
C3361      C3362   1.400       .  A
C3361      C3366   1.412       .  A
C3361      H3371   1.083       .  S
C3362      C3367   1.493       .  S
C3362      C3363   1.413       .  A
C3363      C3364   1.411       .  A
C3363      C3368   1.520       .  S
C3364      C3365   1.413       .  A
C3364      H3369   1.082       .  S
C3365      C3366   1.428       .  A
C3366      C3370   1.520       .  S
C3367      C3372   1.415       .  A
C3367      C3376   1.404       .  A
C3368      F3384   1.383       .  S
C3368      F3385   1.382       .  S
C3368      F3386   1.384       .  S
C3370      F3381   1.385       .  S
C3370      F3382   1.383       .  S
C3370      F3383   1.381       .  S
C3372      C3373   1.408       .  A
C3372      C3377   1.520       .  S
C3373      C3374   1.408       .  A
C3373      H3378   1.083       .  S
C3374      C3375   1.423       .  A
C3375      C3376   1.414       .  A
C3375      C3379   1.519       .  S
C3376      H3380   1.083       .  S
C3377      F3390   1.383       .  S
C3377      F3391   1.382       .  S
C3377      F3392   1.381       .  S
C3379      F3387   1.383       .  S
C3379      F3388   1.383       .  S
C3379      F3389   1.385       .  S
C3393      C3394   1.396       .  A
C3393      C3398   1.393       .  A
C3393      H3403   1.084       .  S
C3394      C3399   1.460       .  S
C3394      C3395   1.415   1_556  A
C3395      C3396   1.401       .  A
C3395      C3400   1.520       .  S
C3396      C3397   1.400       .  A
C3396      H3401   1.084       .  S
C3397      C3398   1.412   1_554  A
C3398      C3402   1.513       .  S
C3399      C3404   1.407       .  A
C3399      C3408   1.406       .  A
C3400      F3416   1.382       .  S
C3400      F3417   1.382       .  S
C3400      F3418   1.384       .  S
C3402      F3413   1.383       .  S
C3402      F3414   1.384       .  S
C3402      F3415   1.382       .  S
C3404      C3405   1.392       .  A
C3404      C3409   1.523       .  S
C3405      C3406   1.405       .  A
C3405      H3410   1.082       .  S
C3406      C3407   1.405       .  A
C3407      C3408   1.403       .  A
C3407      C3411   1.513   1_556  S
C3408      H3412   1.084   1_556  S
C3409      F3422   1.384       .  S
C3409      F3423   1.382       .  S
C3409      F3424   1.382       .  S
C3411      F3419   1.383   1_554  S
C3411      F3420   1.383       .  S
C3411      F3421   1.384       .  S
C3425      C3426   1.398       .  A
C3425      C3430   1.401       .  A
C3425      H3435   1.083       .  S
C3426      C3431   1.474       .  S
C3426      C3427   1.416       .  A
C3427      C3428   1.404       .  A
C3427      C3432   1.519       .  S
C3428      C3429   1.401       .  A
C3428      H3433   1.083       .  S
C3429      C3430   1.417       .  A
C3430      C3434   1.518       .  S
C3431      C3436   1.410       .  A
C3431      C3440   1.397       .  A
C3432      F3448   1.382       .  S
C3432      F3449   1.383       .  S
C3432      F3450   1.385       .  S
C3434      F3445   1.382       .  S
C3434      F3446   1.385       .  S
C3434      F3447   1.382       .  S
C3436      C3437   1.401       .  A
C3436      C3441   1.520       .  S
C3437      C3438   1.410       .  A
C3437      H3442   1.082       .  S
C3438      C3439   1.428       .  A
C3439      C3440   1.404       .  A
C3439      C3443   1.523       .  S
C3440      H3444   1.083       .  S
C3441      F3454   1.385       .  S
C3441      F3455   1.382       .  S
C3441      F3456   1.383       .  S
C3443      F3451   1.383       .  S
C3443      F3452   1.384       .  S
C3443      F3453   1.385       .  S
C3457      C3458   1.401       .  A
C3457      C3462   1.415       .  A
C3457      H3467   1.083       .  S
C3458      C3463   1.501       .  S
C3458      C3459   1.416   1_455  A
C3459      C3460   1.412       .  A
C3459      C3464   1.519       .  S
C3460      C3461   1.411       .  A
C3460      H3465   1.082       .  S
C3461      C3462   1.429   1_655  A
C3462      C3466   1.518   1_545  S
C3463      C3468   1.416       .  A
C3463      C3472   1.407       .  A
C3464      F3480   1.382       .  S
C3464      F3481   1.383       .  S
C3464      F3482   1.385       .  S
C3466      F3477   1.385       .  S
C3466      F3478   1.383       .  S
C3466      F3479   1.380       .  S
C3468      C3469   1.407       .  A
C3468      C3473   1.520       .  S
C3469      C3470   1.408       .  A
C3469      H3474   1.081       .  S
C3470      C3471   1.421       .  A
C3471      C3472   1.418       .  A
C3471      C3475   1.517       .  S
C3472      H3476   1.083       .  S
C3473      F3486   1.385       .  S
C3473      F3487   1.382   1_545  S
C3473      F3488   1.383   1_545  S
C3475      F3483   1.385       .  S
C3475      F3484   1.384       .  S
C3475      F3485   1.382       .  S
C3489      C3490   1.401       .  A
C3489      C3494   1.398       .  A
C3489      H3499   1.084       .  S
C3490      C3495   1.476       .  S
C3490      C3491   1.419       .  A
C3491      C3492   1.407       .  A
C3491      C3496   1.518       .  S
C3492      C3493   1.402       .  A
C3492      H3497   1.084       .  S
C3493      C3494   1.411       .  A
C3494      C3498   1.517       .  S
C3495      C3500   1.410       .  A
C3495      C3504   1.403       .  A
C3496      F3512   1.383       .  S
C3496      F3513   1.382       .  S
C3496      F3514   1.384       .  S
C3498      F3509   1.385       .  S
C3498      F3510   1.382       .  S
C3498      F3511   1.382       .  S
C3500      C3501   1.399       .  A
C3500      C3505   1.520       .  S
C3501      C3502   1.409       .  A
C3501      H3506   1.081       .  S
C3502      C3503   1.420       .  A
C3503      C3504   1.409       .  A
C3503      C3507   1.518       .  S
C3504      H3508   1.083       .  S
C3505      F3518   1.384       .  S
C3505      F3519   1.382       .  S
C3505      F3520   1.382       .  S
C3507      F3515   1.385       .  S
C3507      F3516   1.383       .  S
C3507      F3517   1.384       .  S
C3521      C3522   1.402   1_455  A
C3521      C3526   1.410       .  A
C3521      H3531   1.083       .  S
C3522      C3527   1.495       .  S
C3522      C3523   1.416       .  A
C3523      C3524   1.412       .  A
C3523      C3528   1.518       .  S
C3524      C3525   1.408   1_655  A
C3524      H3529   1.083       .  S
C3525      C3526   1.424       .  A
C3526      C3530   1.519       .  S
C3527      C3532   1.414       .  A
C3527      C3536   1.405       .  A
C3528      F3544   1.382       .  S
C3528      F3545   1.382       .  S
C3528      F3546   1.384       .  S
C3530      F3541   1.380       .  S
C3530      F3542   1.385       .  S
C3530      F3543   1.382       .  S
C3532      C3533   1.406       .  A
C3532      C3537   1.521       .  S
C3533      C3534   1.412       .  A
C3533      H3538   1.081       .  S
C3534      C3535   1.424       .  A
C3535      C3536   1.417       .  A
C3535      C3539   1.518       .  S
C3536      H3540   1.083       .  S
C3537      F3550   1.383       .  S
C3537      F3551   1.382       .  S
C3537      F3552   1.382       .  S
C3539      F3547   1.382       .  S
C3539      F3548   1.384       .  S
C3539      F3549   1.385       .  S
C3553      C3554   1.406   1_455  A
C3553      C3558   1.405   1_455  A
C3553      H3563   1.083       .  S
C3554      C3559   1.463       .  S
C3554      C3555   1.408       .  A
C3555      C3556   1.390       .  A
C3555      C3560   1.522       .  S
C3556      C3557   1.402       .  A
C3556      H3561   1.083       .  S
C3557      C3558   1.407       .  A
C3558      C3562   1.512   1_655  S
C3559      C3564   1.407   1_655  A
C3559      C3568   1.398       .  A
C3560      F3576   1.382       .  S
C3560      F3577   1.382       .  S
C3560      F3578   1.384       .  S
C3562      F3573   1.385       .  S
C3562      F3574   1.383   1_455  S
C3562      F3575   1.383       .  S
C3564      C3565   1.398       .  A
C3564      C3569   1.520       .  S
C3565      C3566   1.408       .  A
C3565      H3570   1.083       .  S
C3566      C3567   1.418   1_455  A
C3567      C3568   1.400       .  A
C3567      C3571   1.516       .  S
C3568      H3572   1.083       .  S
C3569      F3582   1.381       .  S
C3569      F3583   1.382       .  S
C3569      F3584   1.382       .  S
C3571      F3579   1.377       .  S
C3571      F3580   1.383       .  S
C3571      F3581   1.385       .  S
C3585      C3586   1.398       .  A
C3585      C3590   1.404       .  A
C3585      H3595   1.084       .  S
C3586      C3591   1.475       .  S
C3586      C3587   1.412       .  A
C3587      C3588   1.404       .  A
C3587      C3592   1.520       .  S
C3588      C3589   1.408       .  A
C3588      H3593   1.083       .  S
C3589      C3590   1.424       .  A
C3590      C3594   1.520       .  S
C3591      C3596   1.413       .  A
C3591      C3600   1.405       .  A
C3592      F3608   1.382       .  S
C3592      F3609   1.382       .  S
C3592      F3610   1.385       .  S
C3594      F3605   1.385       .  S
C3594      F3606   1.383       .  S
C3594      F3607   1.383       .  S
C3596      C3597   1.400       .  A
C3596      C3601   1.521       .  S
C3597      C3598   1.404       .  A
C3597      H3602   1.084       .  S
C3598      C3599   1.411       .  A
C3599      C3600   1.407       .  A
C3599      C3603   1.513       .  S
C3600      H3604   1.083       .  S
C3601      F3614   1.385       .  S
C3601      F3615   1.382       .  S
C3601      F3616   1.382       .  S
C3603      F3611   1.385       .  S
C3603      F3612   1.384       .  S
C3603      F3613   1.381       .  S
C3617      C3618   1.404       .  A
C3617      C3622   1.415       .  A
C3617      H3627   1.083       .  S
C3618      C3623   1.507       .  S
C3618      C3619   1.420       .  A
C3619      C3620   1.417       .  A
C3619      C3624   1.519       .  S
C3620      C3621   1.408       .  A
C3620      H3625   1.083   1_565  S
C3621      C3622   1.422       .  A
C3622      C3626   1.518       .  S
C3623      C3628   1.417       .  A
C3623      C3632   1.401       .  A
C3624      F3640   1.382       .  S
C3624      F3641   1.382       .  S
C3624      F3642   1.385       .  S
C3626      F3637   1.383       .  S
C3626      F3638   1.384       .  S
C3626      F3639   1.382   1_565  S
C3628      C3629   1.417       .  A
C3628      C3633   1.519       .  S
C3629      C3630   1.413       .  A
C3629      H3634   1.082       .  S
C3630      C3631   1.434       .  A
C3631      C3632   1.417       .  A
C3631      C3635   1.522       .  S
C3632      H3636   1.083       .  S
C3633      F3646   1.384       .  S
C3633      F3647   1.382       .  S
C3633      F3648   1.382       .  S
C3635      F3643   1.383       .  S
C3635      F3644   1.383       .  S
C3635      F3645   1.385       .  S
C3649      C3650   1.398       .  A
C3649      C3654   1.395       .  A
C3649      H3659   1.085       .  S
C3650      C3655   1.465   1_565  S
C3650      C3651   1.416       .  A
C3651      C3652   1.401       .  A
C3651      C3656   1.520       .  S
C3652      C3653   1.401       .  A
C3652      H3657   1.084       .  S
C3653      C3654   1.413       .  A
C3654      C3658   1.516       .  S
C3655      C3660   1.410       .  A
C3655      C3664   1.406       .  A
C3656      F3672   1.382   1_565  S
C3656      F3673   1.383       .  S
C3656      F3674   1.384       .  S
C3658      F3669   1.384       .  S
C3658      F3670   1.382       .  S
C3658      F3671   1.384       .  S
C3660      C3661   1.392       .  A
C3660      C3665   1.523   1_545  S
C3661      C3662   1.402       .  A
C3661      H3666   1.083       .  S
C3662      C3663   1.407       .  A
C3663      C3664   1.406       .  A
C3663      C3667   1.515       .  S
C3664      H3668   1.083       .  S
C3665      F3678   1.384       .  S
C3665      F3679   1.382       .  S
C3665      F3680   1.382       .  S
C3667      F3675   1.383       .  S
C3667      F3676   1.384       .  S
C3667      F3677   1.384       .  S
C3681      C3682   1.400       .  A
C3681      C3686   1.407       .  A
C3681      H3691   1.083       .  S
C3682      C3687   1.478       .  S
C3682      C3683   1.413       .  A
C3683      C3684   1.401       .  A
C3683      C3688   1.520       .  S
C3684      C3685   1.406       .  A
C3684      H3689   1.083       .  S
C3685      C3686   1.421       .  A
C3686      C3690   1.516       .  S
C3687      C3692   1.412       .  A
C3687      C3696   1.396       .  A
C3688      F3704   1.382       .  S
C3688      F3705   1.381       .  S
C3688      F3706   1.385       .  S
C3690      F3701   1.385       .  S
C3690      F3702   1.382       .  S
C3690      F3703   1.379       .  S
C3692      C3693   1.407       .  A
C3692      C3697   1.519       .  S
C3693      C3694   1.409       .  A
C3693      H3698   1.083       .  S
C3694      C3695   1.428       .  A
C3695      C3696   1.404       .  A
C3695      C3699   1.522       .  S
C3696      H3700   1.083       .  S
C3697      F3710   1.385       .  S
C3697      F3711   1.382       .  S
C3697      F3712   1.382       .  S
C3699      F3707   1.383       .  S
C3699      F3708   1.380       .  S
C3699      F3709   1.385       .  S
C3713      C3714   1.402       .  A
C3713      C3718   1.409       .  A
C3713      H3723   1.083       .  S
C3714      C3719   1.489       .  S
C3714      C3715   1.417       .  A
C3715      C3716   1.409       .  A
C3715      C3720   1.522       .  S
C3716      C3717   1.406       .  A
C3716      H3721   1.081       .  S
C3717      C3718   1.419       .  A
C3718      C3722   1.516       .  S
C3719      C3724   1.411       .  A
C3719      C3728   1.403       .  A
C3720      F3736   1.382       .  S
C3720      F3737   1.382       .  S
C3720      F3738   1.385       .  S
C3722      F3733   1.383       .  S
C3722      F3734   1.385       .  S
C3722      F3735   1.381       .  S
C3724      C3725   1.406       .  A
C3724      C3729   1.521       .  S
C3725      C3726   1.414       .  A
C3725      H3730   1.082       .  S
C3726      C3727   1.425       .  A
C3727      C3728   1.412       .  A
C3727      C3731   1.519       .  S
C3728      H3732   1.083       .  S
C3729      F3742   1.384       .  S
C3729      F3743   1.382       .  S
C3729      F3744   1.383       .  S
C3731      F3739   1.384       .  S
C3731      F3740   1.384       .  S
C3731      F3741   1.383       .  S
C3745      C3746   1.401       .  A
C3745      C3750   1.414       .  A
C3745      H3755   1.083       .  S
C3746      C3751   1.500       .  S
C3746      C3747   1.415       .  A
C3747      C3748   1.414       .  A
C3747      C3752   1.519       .  S
C3748      C3749   1.414       .  A
C3748      H3753   1.082       .  S
C3749      C3750   1.430       .  A
C3750      C3754   1.521       .  S
C3751      C3756   1.419       .  A
C3751      C3760   1.402       .  A
C3752      F3768   1.382       .  S
C3752      F3769   1.382       .  S
C3752      F3770   1.383       .  S
C3754      F3765   1.383       .  S
C3754      F3766   1.385       .  S
C3754      F3767   1.384       .  S
C3756      C3757   1.414       .  A
C3756      C3761   1.519       .  S
C3757      C3758   1.407       .  A
C3757      H3762   1.083       .  S
C3758      C3759   1.421       .  A
C3759      C3760   1.413       .  A
C3759      C3763   1.517       .  S
C3760      H3764   1.083       .  S
C3761      F3774   1.385       .  S
C3761      F3775   1.382       .  S
C3761      F3776   1.382       .  S
C3763      F3771   1.383       .  S
C3763      F3772   1.382       .  S
C3763      F3773   1.385       .  S
