geometry optimzed in LAMMPS
_audit_creation_date              2020-12-01 
_audit_creation_method            'lammps2cif' 
_symmetry_space_group_name_H-M    'P1' 
_symmetry_Int_Tables_number       1 
_symmetry_cell_setting            triclinic 
loop_ 
_symmetry_equiv_pos_as_xyz 
  x,y,z 
_cell_length_a                    103.77007732 
_cell_length_b                    41.59027603742559 
_cell_length_c                    51.56932558718515 
_cell_angle_alpha                 89.91620038761783 
_cell_angle_beta                  90.0183161351135 
_cell_angle_gamma                 89.82255812422375 
loop_ 
_atom_site_label 
_atom_site_type_symbol 
_atom_site_fract_x 
_atom_site_fract_y 
_atom_site_fract_z 
_atom_site_charge 
O1          O  0.77747442  0.77701951  0.67048252    -0.82300
C2          C  0.80307822  0.84015321  0.75317485     0.97100
O3          O  0.80595856  0.81298991  0.74396114    -0.71400
O4          O  0.78721434  0.77107804  0.74227912    -0.75000
Al5        Al  0.79870990  0.78769759  0.71670304     1.49000
C6          C  0.77547890  0.76377538  0.74015364     0.92300
O7          O  0.76325141  0.83477163  0.71973652    -0.81200
O8          O  0.78837283  0.86399752  0.66858278    -0.74800
Al9        Al  0.77147978  0.80663134  0.69566523     1.90100
O10         O  0.77611575  0.87590095  0.71431805    -0.73800
O11         O  0.80950457  0.85191182  0.69507524    -0.73700
O12         O  0.79632049  0.85971819  0.74032595    -0.79300
O13         O  0.81207151  0.79984406  0.69312379    -0.77500
O14         O  0.78749181  0.81771188  0.70555967    -1.13700
O15         O  0.79377784  0.75625009  0.69189627    -0.72900
C16         C  0.78592473  0.75542900  0.67321377     0.97900
C17         C  0.76585229  0.86404574  0.72288419     0.94300
Al18       Al  0.79218575  0.85906589  0.70460359     1.55600
O19         O  0.76907301  0.77344466  0.72087470    -0.77500
C20         C  0.81626120  0.82787485  0.68923594     0.98400
C21         C  0.77777604  0.85737382  0.65779982     0.93300
O22         O  0.77015456  0.83755213  0.66821134    -0.82800
O23         O  0.96551266  0.96708037  0.66510772    -0.82300
C24         C  0.94357809  0.89747778  0.74873075     0.97100
O25         O  0.94029219  0.92493252  0.74084301    -0.71400
O26         O  0.95871329  0.96722310  0.73942042    -0.75000
Al27       Al  0.94639397  0.95233237  0.71439551     1.49000
C28         C  0.97002498  0.97675326  0.73505182     0.92300
O29         O  0.98179046  0.90817081  0.71182919    -0.81200
O30         O  0.95584057  0.88002698  0.66131864    -0.74800
Al31       Al  0.97278120  0.93680447  0.68891454     1.90100
O32         O  0.96948465  0.86606279  0.70529318    -0.73800
O33         O  0.93529320  0.88937666  0.69056663    -0.73700
O34         O  0.94979279  0.87863826  0.73422406    -0.79300
O35         O  0.93236631  0.94143936  0.69213981    -0.77500
O36         O  0.95729393  0.92386352  0.70026456    -1.13700
O37         O  0.95023224  0.98572693  0.69057442    -0.72900
C38         C  0.95696896  0.98787267  0.67027665     0.97900
C39         C  0.97952868  0.87852702  0.71443200     0.94300
Al40       Al  0.95293837  0.88229539  0.69796938     1.55600
O41         O  0.97550051  0.96954529  0.71407808    -0.77500
C42         C  0.92823569  0.91365130  0.68705930     0.98400
C43         C  0.96623805  0.88770827  0.65020486     0.93300
O44         O  0.97387517  0.90714228  0.66090676    -0.82800
O45         O  0.77858924  0.97184191  0.06377697    -0.82300
C46         C  0.79995538  0.89576906  0.98394783     0.97100
O47         O  0.80451863  0.92221977  0.99166958    -0.71400
O48         O  0.78729146  0.96861475  0.99095891    -0.75000
Al49       Al  0.79854388  0.95224078  0.01733223     1.49000
C50         C  0.77599190  0.97944614  0.99356526     0.92300
O51         O  0.76161455  0.91428476  0.01836591    -0.81200
O52         O  0.78649959  0.88419328  0.07062630    -0.74800
Al53       Al  0.77114147  0.94212726  0.04063505     1.90100
O54         O  0.77261393  0.87059637  0.02724365    -0.73800
O55         O  0.80719443  0.88783970  0.04158003    -0.73700
O56         O  0.79260531  0.87951335  0.99830181    -0.79300
O57         O  0.81172426  0.93913024  0.04147942    -0.77500
O58         O  0.78645289  0.92635391  0.03082635    -1.13700
O59         O  0.79487093  0.98784465  0.03991520    -0.72900
C60         C  0.78723788  0.99213749  0.05874329     0.97900
C61         C  0.76283963  0.88416990  0.01788308     0.94300
Al62       Al  0.78952466  0.88430885  0.03415745     1.55600
O63         O  0.76972526  0.97370740  0.01396520    -0.77500
C64         C  0.81486900  0.91035642  0.04636790     0.98400
C65         C  0.77620552  0.89385740  0.08116536     0.93300
O66         O  0.76904238  0.91396789  0.06968180    -0.82800
O67         O  0.96475444  0.76837055  0.06659054    -0.82300
C68         C  0.94313248  0.83609525  0.98216113     0.97100
O69         O  0.93844162  0.81135179  0.99257069    -0.71400
O70         O  0.95586352  0.76608542  0.99434055    -0.75000
Al71       Al  0.94461681  0.78455133  0.01964208     1.49000
C72         C  0.96742941  0.75710028  0.99682476     0.92300
O73         O  0.98167886  0.82441155  0.01936000    -0.81200
O74         O  0.95630262  0.85860492  0.06759783    -0.74800
Al75       Al  0.97200945  0.79756355  0.04228433     1.90100
O76         O  0.96996575  0.86786059  0.02347557    -0.73800
O77         O  0.93559204  0.85080890  0.03889457    -0.73700
O78         O  0.95027849  0.85473151  0.99494217    -0.79300
O79         O  0.93149782  0.79956310  0.04312975    -0.77500
O80         O  0.95663212  0.81199446  0.03126187    -1.13700
O81         O  0.94832669  0.75159010  0.04375692    -0.72900
C82         C  0.95591224  0.74826119  0.06261940     0.97900
C83         C  0.98002473  0.85406960  0.01590446     0.94300
Al84       Al  0.95327862  0.85420542  0.03127844     1.55600
O85         O  0.97383586  0.76503970  0.01657838    -0.77500
C86         C  0.92812406  0.82861589  0.04571179     0.98400
C87         C  0.96619228  0.84896130  0.07970525     0.93300
O88         O  0.97339129  0.82743401  0.07018811    -0.82800
O89         O  0.02436649  0.57339306  0.82760849    -0.82300
C90         C  0.05150405  0.57414598  0.73244912     0.97100
O91         O  0.05218280  0.59625483  0.74929064    -0.71400
O92         O  0.02907193  0.61493465  0.76018678    -0.75000
Al93       Al  0.04272927  0.60191019  0.78138426     1.49000
C94         C  0.01747419  0.61508539  0.76702190     0.92300
O95         O  0.01595627  0.53400025  0.76345406    -0.81200
O96         O  0.04644298  0.50977102  0.80558034    -0.74800
Al97       Al  0.02107306  0.55401755  0.79502193     1.90100
O98         O  0.03311330  0.50344515  0.75980330    -0.73800
O99         O  0.06309691  0.54892133  0.78269409    -0.73700
O100        O  0.04801157  0.54629973  0.73888186    -0.79300
O101        O  0.05736919  0.59338068  0.80217214    -0.77500
O102        O  0.03692590  0.56194092  0.78325723    -1.13700
O103        O  0.03412004  0.61640583  0.81266077    -0.72900
C104        C  0.02769898  0.60240087  0.83029722     0.97900
C105        C  0.02160371  0.51001118  0.75358007     0.94300
Al106      Al  0.04688395  0.52974693  0.77273621     1.55600
O107        O  0.01328883  0.59370261  0.78234454    -0.77500
C108        C  0.06595478  0.57321054  0.79627006     0.98400
C109        C  0.03619427  0.49950700  0.81580838     0.93300
O110        O  0.02545747  0.51285745  0.81072199    -0.82800
O111        O  0.22038276  0.65550187  0.81991880    -0.82300
C112        C  0.19030941  0.65391086  0.72816202     0.97100
O113        O  0.18938771  0.63398703  0.74659730    -0.71400
O114        O  0.21252699  0.61294035  0.75417053    -0.75000
Al115      Al  0.19996715  0.62872024  0.77690883     1.49000
C116        C  0.22443661  0.61285530  0.75847717     0.92300
O117        O  0.22772101  0.69346903  0.75416245    -0.81200
O118        O  0.19878706  0.72311713  0.79725666    -0.74800
Al119      Al  0.22294122  0.67415195  0.78640805     1.90100
O120        O  0.21083316  0.72470832  0.75007719    -0.73800
O121        O  0.18083134  0.68407891  0.77819759    -0.73700
O122        O  0.19463725  0.68175568  0.73229572    -0.79300
O123        O  0.18639614  0.64061870  0.79951025    -0.77500
O124        O  0.20666315  0.66794036  0.77648116    -1.13700
O125        O  0.20931233  0.61383715  0.80690599    -0.72900
C126        C  0.21645117  0.62714387  0.82360957     0.97900
C127        C  0.22228753  0.71761326  0.74400132     0.94300
Al128      Al  0.19703575  0.70072854  0.76546569     1.55600
O129        O  0.22951625  0.63380813  0.77300018    -0.77500
C130        C  0.17798020  0.66123228  0.79341904     0.98400
C131        C  0.20944942  0.73097807  0.80726633     0.93300
O132        O  0.21964436  0.71540227  0.80202286    -0.82800
O133        O  0.02400892  0.66210999  0.40482729    -0.82300
C134        C  0.04873510  0.65846148  0.50309268     0.97100
O135        O  0.04991557  0.63732968  0.48563130    -0.71400
O136        O  0.02693927  0.61882163  0.47266639    -0.75000
Al137      Al  0.04102293  0.63278750  0.45289342     1.49000
C138        C  0.01553177  0.61895060  0.46453399     0.92300
O139        O  0.01310139  0.69801023  0.46894255    -0.81200
O140        O  0.04424428  0.72721024  0.43192423    -0.74800
Al141      Al  0.01942272  0.68003357  0.43758416     1.90100
O142        O  0.02960321  0.72936485  0.47680543    -0.73800
O143        O  0.06091292  0.68696359  0.45422650    -0.73700
O144        O  0.04491790  0.68632337  0.49730848    -0.79300
O145        O  0.05590465  0.64273564  0.43353493    -0.77500
O146        O  0.03494276  0.67261760  0.45125320    -1.13700
O147        O  0.03321139  0.61882873  0.42079719    -0.72900
C148        C  0.02740271  0.63303271  0.40239031     0.97900
C149        C  0.01798676  0.72143016  0.48093284     0.94300
Al150      Al  0.04420234  0.70484021  0.46392472     1.55600
O151        O  0.01176381  0.63976219  0.44830934    -0.77500
C152        C  0.06418026  0.66327012  0.44014685     0.98400
C153        C  0.03418491  0.73655719  0.42034972     0.93300
O154        O  0.02362019  0.72189464  0.42364927    -0.82800
O155        O  0.21828983  0.56045474  0.40311792    -0.82300
C156        C  0.19053890  0.57607280  0.49694714     0.97100
O157        O  0.19015118  0.59536138  0.47795020    -0.71400
O158        O  0.21381504  0.60880455  0.46704761    -0.75000
Al159      Al  0.20004728  0.59569080  0.44630548     1.49000
C160        C  0.22558391  0.60404306  0.46278598     0.92300
O161        O  0.22512795  0.52402702  0.46949118    -0.81200
O162        O  0.19399258  0.50160463  0.43007479    -0.74800
Al163      Al  0.22055993  0.54278620  0.43697114     1.90100
O164        O  0.20713678  0.49826791  0.47630442    -0.73800
O165        O  0.17855562  0.54642281  0.44921224    -0.73700
O166        O  0.19356262  0.54701148  0.49344872    -0.79300
O167        O  0.18527436  0.58688722  0.42563585    -0.77500
O168        O  0.20493036  0.55469912  0.44783879    -1.13700
O169        O  0.20935850  0.60589068  0.41485849    -0.72900
C170        C  0.21581751  0.58969213  0.39861250     0.97900
C171        C  0.21891504  0.50263045  0.48143091     0.94300
Al172      Al  0.19418001  0.52572867  0.46104602     1.55600
O173        O  0.22930379  0.58101600  0.44861951    -0.77500
C174        C  0.17622670  0.56905606  0.43340983     0.98400
C175        C  0.20386867  0.48996996  0.41924600     0.93300
O176        O  0.21490892  0.50212558  0.42306102    -0.82800
O177        O  0.71995614  0.16857712  0.82418623    -0.82300
C178        C  0.69062901  0.16445515  0.73185045     0.97100
O179        O  0.69089416  0.14250409  0.74888011    -0.71400
O180        O  0.71471043  0.12660697  0.75653439    -0.75000
Al181      Al  0.70147802  0.13792909  0.77949075     1.49000
C182        C  0.72642474  0.12742539  0.76256760     0.92300
O183        O  0.72667199  0.20750803  0.75912397    -0.81200
O184        O  0.69702125  0.23032526  0.80364482    -0.74800
Al185      Al  0.72250955  0.18767993  0.79110576     1.90100
O186        O  0.70914304  0.23695568  0.75605777    -0.73800
O187        O  0.68030105  0.18902480  0.78347538    -0.73700
O188        O  0.69390553  0.19268929  0.73754013    -0.79300
O189        O  0.68748463  0.14512353  0.80210698    -0.77500
O190        O  0.70659259  0.17847490  0.78068953    -1.13700
O191        O  0.71128115  0.12401936  0.80961992    -0.72900
C192        C  0.71735645  0.13914742  0.82710804     0.97900
C193        C  0.72069595  0.23112758  0.74942549     0.94300
Al194      Al  0.69591823  0.20974299  0.77107095     1.55600
O195        O  0.73052515  0.14870168  0.77801955    -0.77500
C196        C  0.67837681  0.16441469  0.79750797     0.98400
C197        C  0.70741476  0.24100255  0.81290215     0.93300
O198        O  0.71810388  0.22841539  0.80666935    -0.82800
O199        O  0.52174827  0.07692328  0.82522429    -0.82300
C200        C  0.55298016  0.08518520  0.73548526     0.97100
O201        O  0.55205480  0.10680445  0.75266763    -0.71400
O202        O  0.52802190  0.12057524  0.75936634    -0.75000
Al203      Al  0.54107788  0.10972261  0.78284587     1.49000
C204        C  0.51618308  0.11688710  0.76322098     0.92300
O205        O  0.51744190  0.03679297  0.75977745    -0.81200
O206        O  0.54674617  0.01749208  0.80618807    -0.74800
Al207      Al  0.52057725  0.05743702  0.79207796     1.90100
O208        O  0.53557706  0.00983680  0.75803020    -0.73800
O209        O  0.56297436  0.06086505  0.78692882    -0.73700
O210        O  0.55001117  0.05654016  0.74062691    -0.79300
O211        O  0.55498358  0.10339874  0.80605390    -0.77500
O212        O  0.53654003  0.06862597  0.78313019    -1.13700
O213        O  0.53073595  0.12196786  0.81266421    -0.72900
C214        C  0.52415879  0.10626680  0.82907024     0.97900
C215        C  0.52409515  0.01417074  0.75039270     0.94300
Al216      Al  0.54791329  0.03864977  0.77386468     1.55600
O217        O  0.51212588  0.09492640  0.77802279    -0.77500
C218        C  0.56447821  0.08550452  0.80102641     0.98400
C219        C  0.53637736  0.00637197  0.81526329     0.93300
O220        O  0.52558976  0.01788974  0.80840525    -0.82800
O221        O  0.72099902  0.07634903  0.40917919    -0.82300
C222        C  0.69307634  0.08239047  0.50339696     0.97100
O223        O  0.69336176  0.10435923  0.48643047    -0.71400
O224        O  0.71723414  0.11765459  0.47736263    -0.75000
Al225      Al  0.70349776  0.10795618  0.45522755     1.49000
C226        C  0.72889879  0.11481168  0.47130318     0.92300
O227        O  0.72813986  0.03546897  0.47362384    -0.81200
O228        O  0.69745556  0.01556942  0.43132033    -0.74800
Al229      Al  0.72369393  0.05620861  0.44200107     1.90100
O230        O  0.71023725  0.00816037  0.47818295    -0.73800
O231        O  0.68159508  0.05890976  0.45242905    -0.73700
O232        O  0.69590375  0.05390085  0.49744485    -0.79300
O233        O  0.68897212  0.10237641  0.43357653    -0.77500
O234        O  0.70806090  0.06688435  0.45348194    -1.13700
O235        O  0.71301551  0.12130383  0.42469524    -0.72900
C236        C  0.71878684  0.10613245  0.40679919     0.97900
C237        C  0.72194312  0.01290005  0.48418015     0.94300
Al238      Al  0.69715141  0.03660764  0.46384366     1.55600
O239        O  0.73244252  0.09380642  0.45508231    -0.77500
C240        C  0.67967762  0.08406184  0.43896185     0.98400
C241        C  0.70757861  0.00403798  0.42140183     0.93300
O242        O  0.71846004  0.01623720  0.42646133    -0.82800
O243        O  0.52288648  0.17055430  0.41536662    -0.82300
C244        C  0.55266315  0.16712210  0.50776000     0.97100
O245        O  0.55226815  0.14486058  0.49106678    -0.71400
O246        O  0.52857524  0.12893666  0.48262682    -0.75000
Al247      Al  0.54194434  0.14046077  0.46003731     1.49000
C248        C  0.51680102  0.13087518  0.47726085     0.92300
O249        O  0.51663690  0.21103901  0.48017291    -0.81200
O250        O  0.54622074  0.23345669  0.43568756    -0.74800
Al251      Al  0.52072653  0.19050271  0.44830874     1.90100
O252        O  0.53427113  0.23965745  0.48344496    -0.73800
O253        O  0.56309265  0.19163053  0.45591757    -0.73700
O254        O  0.54949852  0.19535072  0.50166836    -0.79300
O255        O  0.55616558  0.14735797  0.43785017    -0.77500
O256        O  0.53674014  0.18112165  0.45862566    -1.13700
O257        O  0.53247252  0.12681061  0.42954813    -0.72900
C258        C  0.52602958  0.14142132  0.41221093     0.97900
C259        C  0.52276150  0.23401238  0.49028797     0.94300
Al260      Al  0.54741420  0.21240799  0.46820607     1.55600
O261        O  0.51272245  0.15230235  0.46191865    -0.77500
C262        C  0.56521041  0.16664677  0.44248245     0.98400
C263        C  0.53576461  0.24371585  0.42620489     0.93300
O264        O  0.52517107  0.23063368  0.43218955    -0.82800
O265        O  0.72141406  0.66613785  0.32508084    -0.82300
C266        C  0.69357968  0.66350318  0.23114418     0.97100
O267        O  0.69289238  0.64238355  0.24881839    -0.71400
O268        O  0.71589483  0.62221990  0.25872643    -0.75000
Al269      Al  0.70273934  0.63712469  0.28038102     1.49000
C270        C  0.72763445  0.62218743  0.26447832     0.92300
O271        O  0.73029904  0.70148391  0.26008379    -0.81200
O272        O  0.70055632  0.73108715  0.30160748    -0.74800
Al273      Al  0.72501255  0.68341664  0.29204432     1.90100
O274        O  0.71375205  0.73382903  0.25512314    -0.73800
O275        O  0.68318598  0.69205675  0.28082861    -0.73700
O276        O  0.69771743  0.69125311  0.23617887    -0.79300
O277        O  0.68860979  0.64808977  0.30164631    -0.77500
O278        O  0.70906979  0.67667380  0.28074355    -1.13700
O279        O  0.71158353  0.62262171  0.31174695    -0.72900
C280        C  0.71787980  0.63757965  0.32903678     0.97900
C281        C  0.72522241  0.72582908  0.24956435     0.94300
Al282      Al  0.69954434  0.70941664  0.26945352     1.55600
O283        O  0.73214369  0.64277539  0.28006210    -0.77500
C284        C  0.68021042  0.66862218  0.29536825     0.98400
C285        C  0.71100921  0.73980317  0.31191532     0.93300
O286        O  0.72142951  0.72516770  0.30675111    -0.82800
O287        O  0.52793420  0.57732932  0.32194326    -0.82300
C288        C  0.55535372  0.57751324  0.22729044     0.97100
O289        O  0.55598473  0.59933946  0.24434323    -0.71400
O290        O  0.53272950  0.61836338  0.25406646    -0.75000
Al291      Al  0.54620084  0.60532534  0.27584760     1.49000
C292        C  0.52107629  0.61830681  0.26053643     0.92300
O293        O  0.51921279  0.53781547  0.25833781    -0.81200
O294        O  0.54968272  0.51317053  0.29997421    -0.74800
Al295      Al  0.52447417  0.55800250  0.28955795     1.90100
O296        O  0.53624954  0.50695912  0.25412428    -0.73800
O297        O  0.56636810  0.55211964  0.27739075    -0.73700
O298        O  0.55143620  0.54982093  0.23322084    -0.79300
O299        O  0.56053013  0.59632789  0.29722579    -0.77500
O300        O  0.54028803  0.56547653  0.27763617    -1.13700
O301        O  0.53745041  0.62042426  0.30675324    -0.72900
C302        C  0.53133019  0.60621463  0.32468248     0.97900
C303        C  0.52464971  0.51352897  0.24851934     0.94300
Al304      Al  0.55015452  0.53310642  0.26711979     1.55600
O305        O  0.51683901  0.59766345  0.27645983    -0.77500
C306        C  0.56911356  0.57609075  0.29146319     0.98400
C307        C  0.53947980  0.50399432  0.31098564     0.93300
O308        O  0.52875769  0.51719152  0.30562980    -0.82800
O309        O  0.72110431  0.57902941  0.91224221    -0.82300
C310        C  0.69131549  0.57706986  0.00400013     0.97100
O311        O  0.69061204  0.59890477  0.98688551    -0.71400
O312        O  0.71369408  0.61971283  0.97886781    -0.75000
Al313      Al  0.70095426  0.60543222  0.95605750     1.49000
C314        C  0.72553349  0.62016050  0.97397051     0.92300
O315        O  0.72830950  0.53925889  0.97707472    -0.81200
O316        O  0.69936203  0.51292512  0.93190865    -0.74800
Al317      Al  0.72371416  0.55948086  0.94511458     1.90100
O318        O  0.71152788  0.50755460  0.97905874    -0.73800
O319        O  0.68152103  0.55080746  0.95264693    -0.73700
O320        O  0.69544483  0.54950838  0.99817060    -0.79300
O321        O  0.68723695  0.59545234  0.93345095    -0.77500
O322        O  0.70746089  0.56596986  0.95505412    -1.13700
O323        O  0.71017354  0.62094480  0.92586945    -0.72900
C324        C  0.71717912  0.60750286  0.90887461     0.97900
C325        C  0.72283334  0.51465029  0.98622133     0.94300
Al326      Al  0.69772937  0.53291829  0.96456487     1.55600
O327        O  0.73047063  0.59928935  0.95910242    -0.77500
C328        C  0.67879092  0.57465248  0.93834424     0.98400
C329        C  0.71001597  0.50438009  0.92226582     0.93300
O330        O  0.72035154  0.51863139  0.92856452    -0.82800
O331        O  0.52569253  0.66841632  0.90849513    -0.82300
C332        C  0.55519028  0.66669056  0.00082724     0.97100
O333        O  0.55555257  0.64500389  0.98363070    -0.71400
O334        O  0.53196650  0.62780628  0.97575811    -0.75000
Al335      Al  0.54510989  0.63981533  0.95293388     1.49000
C336        C  0.52010166  0.62998825  0.97132469     0.92300
O337        O  0.51926675  0.71068155  0.97260945    -0.81200
O338        O  0.54918877  0.73130069  0.92845436    -0.74800
Al339      Al  0.52353188  0.68907683  0.94113190     1.90100
O340        O  0.53686409  0.73936041  0.97518553    -0.73800
O341        O  0.56575549  0.69121801  0.94998993    -0.73700
O342        O  0.55161399  0.69479062  0.99508230    -0.79300
O343        O  0.55919342  0.64762875  0.93037002    -0.77500
O344        O  0.53954195  0.68013838  0.95158484    -1.13700
O345        O  0.53556581  0.62536338  0.92304070    -0.72900
C346        C  0.52886726  0.63927691  0.90579092     0.97900
C347        C  0.52534002  0.73423714  0.98195174     0.94300
Al348      Al  0.55002011  0.71159044  0.96127895     1.55600
O349        O  0.51571649  0.65086782  0.95574435    -0.77500
C350        C  0.56805524  0.66725428  0.93560536     0.98400
C351        C  0.53886327  0.74136621  0.91836880     0.93300
O352        O  0.52810872  0.72888716  0.92424674    -0.82800
O353        O  0.27966886  0.75640702  0.17587967    -0.82300
C354        C  0.30441618  0.82407844  0.25313723     0.97100
O355        O  0.30043507  0.79594509  0.24907342    -0.71400
O356        O  0.28586852  0.75000066  0.23023574    -0.75000
Al357      Al  0.29997571  0.77551032  0.21636505     1.49000
C358        C  0.27406321  0.75646678  0.23381032     0.92300
O359        O  0.26662328  0.83696778  0.20104124    -0.81200
O360        O  0.28790328  0.85909721  0.17023945    -0.74800
Al361      Al  0.27472592  0.79758061  0.18971183     1.90100
O362        O  0.28218922  0.86106690  0.22223539    -0.73800
O363        O  0.31090604  0.83596733  0.18273022    -0.73700
O364        O  0.30538732  0.84385973  0.23460473    -0.79300
O365        O  0.31644846  0.79406629  0.20604965    -0.77500
O366        O  0.29027299  0.80647952  0.20256855    -1.13700
O367        O  0.30028484  0.75193947  0.18516991    -0.72900
C368        C  0.29043272  0.74232668  0.17314416     0.97900
C369        C  0.27046338  0.85836655  0.21661407     0.94300
Al370      Al  0.29609229  0.84658704  0.20233788     1.55600
O371        O  0.26885777  0.77907411  0.22126015    -0.77500
C372        C  0.31948430  0.81691141  0.19087595     0.98400
C373        C  0.28197205  0.84406147  0.15258892     0.93300
O374        O  0.27842300  0.81543173  0.15642793    -0.82800
O375        O  0.46971585  0.97375673  0.16960330    -0.82300
C376        C  0.44666177  0.90144573  0.24999376     0.97100
O377        O  0.44268732  0.92829889  0.24163456    -0.71400
O378        O  0.45984021  0.97436606  0.24085565    -0.75000
Al379      Al  0.44870003  0.95659377  0.21508900     1.49000
C380        C  0.47138323  0.98343127  0.23893515     0.92300
O381        O  0.48499353  0.91401944  0.21655707    -0.81200
O382        O  0.45988709  0.88662440  0.16353605    -0.74800
Al383      Al  0.47627051  0.94285733  0.19341057     1.90100
O384        O  0.47357788  0.87166403  0.20665330    -0.73800
O385        O  0.43903697  0.89187024  0.19296411    -0.73700
O386        O  0.45373082  0.88361932  0.23614876    -0.79300
O387        O  0.43531091  0.94340657  0.19162311    -0.77500
O388        O  0.46055770  0.92917512  0.20271892    -1.13700
O389        O  0.45268598  0.99009708  0.19126684    -0.72900
C390        C  0.46082151  0.99404002  0.17332515     0.97900
C391        C  0.48345082  0.88401109  0.21646135     0.94300
Al392      Al  0.45684530  0.88731869  0.20001634     1.55600
O393        O  0.47809290  0.97465258  0.21984807    -0.77500
C394        C  0.43153871  0.91489372  0.18823356     0.98400
C395        C  0.47052971  0.89423150  0.15324618     0.93300
O396        O  0.47802447  0.91368705  0.16458476    -0.82800
O397        O  0.27820706  0.96544155  0.55580501    -0.82300
C398        C  0.30588284  0.89783006  0.48283383     0.97100
O399        O  0.30163708  0.92590855  0.48622429    -0.71400
O400        O  0.28574369  0.97065091  0.50244306    -0.75000
Al401      Al  0.29995971  0.94708504  0.51835125     1.49000
C402        C  0.27422144  0.96250566  0.49761027     0.92300
O403        O  0.26729661  0.88266062  0.53186979    -0.81200
O404        O  0.28811441  0.86392631  0.56462039    -0.74800
Al405      Al  0.27442864  0.92331502  0.54269334     1.90100
O406        O  0.28362201  0.85948613  0.51237440    -0.73800
O407        O  0.31074199  0.88857466  0.55405245    -0.73700
O408        O  0.30674901  0.87853984  0.50173031    -0.79300
O409        O  0.31651718  0.93003877  0.53064005    -0.77500
O410        O  0.29039507  0.91556146  0.53161010    -1.13700
O411        O  0.29896651  0.97186732  0.54907746    -0.72900
C412        C  0.28853753  0.98095795  0.55942896     0.97900
C413        C  0.27179266  0.86072072  0.51748084     0.94300
Al414      Al  0.29678551  0.87601550  0.53317793     1.55600
O415        O  0.26912353  0.93979182  0.51011499    -0.77500
C416        C  0.31937079  0.90749562  0.54631878     0.98400
C417        C  0.28159956  0.87903847  0.58138641     0.93300
O418        O  0.27768258  0.90722868  0.57669355    -0.82800
O419        O  0.47376817  0.76449521  0.55664566    -0.82300
C420        C  0.44604519  0.82409195  0.47926233     0.97100
O421        O  0.44909701  0.79616195  0.48639092    -0.71400
O422        O  0.46444556  0.75309795  0.50609225    -0.75000
Al423      Al  0.45139477  0.78121064  0.52051216     1.49000
C424        C  0.47596303  0.75824257  0.49901119     0.92300
O425        O  0.48624495  0.84139599  0.52449435    -0.81200
O426        O  0.46680127  0.86875592  0.55505995    -0.74800
Al427      Al  0.47817540  0.80385361  0.53928742     1.90100
O428        O  0.47054693  0.86281184  0.50207714    -0.73800
O429        O  0.44314539  0.84839849  0.54808786    -0.73700
O430        O  0.44667945  0.84730973  0.49500394    -0.79300
O431        O  0.43589915  0.80297358  0.53250230    -0.77500
O432        O  0.46219943  0.81279990  0.52857776    -1.13700
O433        O  0.45270888  0.76222000  0.55375573    -0.72900
C434        C  0.46316082  0.75195866  0.56319611     0.97900
C435        C  0.48224893  0.86184316  0.50819838     0.94300
Al436      Al  0.45719828  0.85339394  0.52540620     1.55600
O437        O  0.48218016  0.78167753  0.50820198    -0.77500
C438        C  0.43402193  0.82894435  0.54481798     0.98400
C439        C  0.47287195  0.85494539  0.57332494     0.93300
O440        O  0.47587348  0.82552801  0.57149876    -0.82800
O441        O  0.78063685  0.27324777  0.16859470    -0.82300
C442        C  0.80131614  0.34436806  0.25211938     0.97100
O443        O  0.80620521  0.31921522  0.24253647    -0.71400
O444        O  0.78901674  0.27373426  0.24162327    -0.75000
Al445      Al  0.80034759  0.29089102  0.21598165     1.49000
C446        C  0.77761321  0.26384704  0.23897895     0.92300
O447        O  0.76339266  0.32946445  0.21525004    -0.81200
O448        O  0.78910809  0.36191056  0.16580423    -0.74800
Al449      Al  0.77310226  0.30250178  0.19240616     1.90100
O450        O  0.77436725  0.37336618  0.20802573    -0.73800
O451        O  0.80923925  0.35648705  0.19639009    -0.73700
O452        O  0.79374203  0.36166690  0.23888515    -0.79300
O453        O  0.81348094  0.30525131  0.19236384    -0.77500
O454        O  0.78830834  0.31749072  0.20335788    -1.13700
O455        O  0.79693115  0.25677963  0.19230297    -0.72900
C456        C  0.78955394  0.25331216  0.17304498     0.97900
C457        C  0.76453720  0.35951002  0.21657946     0.94300
Al458      Al  0.79138712  0.35962372  0.20233251     1.55600
O459        O  0.77141413  0.26986101  0.21845484    -0.77500
C460        C  0.81685287  0.33429799  0.19005051     0.98400
C461        C  0.77901345  0.35329301  0.15399154     0.93300
O462        O  0.77156784  0.33250197  0.16392465    -0.82800
O463        O  0.96446006  0.46355485  0.16057735    -0.82300
C464        C  0.95001593  0.39327308  0.25013091     0.97100
O465        O  0.94503110  0.41914928  0.24210672    -0.71400
O466        O  0.96204635  0.46508818  0.23655827    -0.75000
Al467      Al  0.94914152  0.44755963  0.21428506     1.49000
C468        C  0.97246678  0.47791109  0.22939018     0.92300
O469        O  0.98568145  0.41268707  0.20475000    -0.81200
O470        O  0.95792765  0.37607732  0.16170023    -0.74800
Al471      Al  0.97431429  0.43723924  0.18329896     1.90100
O472        O  0.97509101  0.36722943  0.20116881    -0.73800
O473        O  0.93939817  0.38156829  0.19599774    -0.73700
O474        O  0.95698551  0.37652343  0.23533036    -0.79300
O475        O  0.93479706  0.43294706  0.19416074    -0.77500
O476        O  0.96028674  0.42129804  0.19862998    -1.13700
O477        O  0.95095881  0.48180621  0.18989522    -0.72900
C478        C  0.95636498  0.48430067  0.16802964     0.97900
C479        C  0.98502888  0.38261578  0.20749816     0.94300
Al480      Al  0.95755713  0.37902638  0.19854111     1.55600
O481        O  0.97693392  0.47219681  0.20708280    -0.77500
C482        C  0.93148170  0.40391360  0.19151031     0.98400
C483        C  0.96736283  0.38454348  0.14787615     0.93300
O484        O  0.97502796  0.40592721  0.15591042    -0.82800
O485        O  0.77588708  0.47820741  0.56189270    -0.82300
C486        C  0.80214588  0.41681517  0.48361170     0.97100
O487        O  0.79855467  0.44457889  0.48997720    -0.71400
O488        O  0.78304084  0.48736299  0.50963112    -0.75000
Al489      Al  0.79721269  0.46128950  0.52351721     1.49000
C490        C  0.77151468  0.47954004  0.50416183     0.92300
O491        O  0.76383509  0.39778352  0.53431350    -0.81200
O492        O  0.78430978  0.37428877  0.56329794    -0.74800
Al493      Al  0.77164819  0.43707164  0.54674796     1.90100
O494        O  0.77928095  0.37718851  0.51064733    -0.73800
O495        O  0.80723936  0.39716921  0.55331030    -0.73700
O496        O  0.80264989  0.39456180  0.50036393    -0.79300
O497        O  0.81350094  0.44163963  0.53433430    -0.77500
O498        O  0.78732365  0.42919119  0.53428840    -1.13700
O499        O  0.79677395  0.48165212  0.55610043    -0.72900
C500        C  0.78658692  0.49147843  0.56676825     0.97900
C501        C  0.76769283  0.37768293  0.51760774     0.94300
Al502      Al  0.79294786  0.38909437  0.53216577     1.55600
O503        O  0.76628789  0.45614463  0.51553006    -0.77500
C504        C  0.81596772  0.41708927  0.54819537     0.98400
C505        C  0.77859832  0.38876090  0.58166824     0.93300
O506        O  0.77543814  0.41797238  0.57926068    -0.82800
O507        O  0.96467193  0.27431529  0.56910339    -0.82300
C508        C  0.94532548  0.34549323  0.48412594     0.97100
O509        O  0.94053662  0.31959589  0.49254594    -0.71400
O510        O  0.95799616  0.27437367  0.49465129    -0.75000
Al511      Al  0.94603542  0.29087093  0.51948843     1.49000
C512        C  0.96904603  0.26307279  0.49926372     0.92300
O513        O  0.98231705  0.32892241  0.52182666    -0.81200
O514        O  0.95626492  0.36119234  0.57141732    -0.74800
Al515      Al  0.97264149  0.30263488  0.54518184     1.90100
O516        O  0.97150981  0.37323202  0.52958748    -0.73800
O517        O  0.93649527  0.35587731  0.54030375    -0.73700
O518        O  0.95232391  0.36262525  0.49850148    -0.79300
O519        O  0.93234537  0.30437046  0.54215838    -0.77500
O520        O  0.95759688  0.31754155  0.53335926    -1.13700
O521        O  0.94942502  0.25635762  0.54335112    -0.72900
C522        C  0.95640644  0.25322911  0.56335647     0.97900
C523        C  0.98112752  0.35899847  0.52017242     0.94300
Al524      Al  0.95435803  0.35956831  0.53483309     1.55600
O525        O  0.97460333  0.26906078  0.52041835    -0.77500
C526        C  0.92896091  0.33324114  0.54577210     0.98400
C527        C  0.96647390  0.35321466  0.58311883     0.93300
O528        O  0.97416228  0.33312000  0.57303724    -0.82800
O529        O  0.01995490  0.07924407  0.32361535    -0.82300
C530        C  0.04889726  0.07467556  0.23056619     0.97100
O531        O  0.04945682  0.09676180  0.24734726    -0.71400
O532        O  0.02619634  0.11747492  0.25452428    -0.75000
Al533      Al  0.03906791  0.10430579  0.27772319     1.49000
C534        C  0.01458006  0.11979014  0.26102473     0.92300
O535        O  0.01138280  0.04087898  0.25942131    -0.81200
O536        O  0.04029388  0.01148237  0.30338821    -0.74800
Al537      Al  0.01644676  0.06001119  0.29097766     1.90100
O538        O  0.02770856  0.00737135  0.25601048    -0.73800
O539        O  0.05841978  0.04909562  0.28256783    -0.73700
O540        O  0.04452276  0.04747549  0.23659766    -0.79300
O541        O  0.05268578  0.09473683  0.30045206    -0.77500
O542        O  0.03256121  0.06518260  0.27993396    -1.13700
O543        O  0.02993425  0.12117054  0.30741237    -0.72900
C544        C  0.02342909  0.10827011  0.32542437     0.97900
C545        C  0.01643284  0.01616910  0.24946011     0.94300
Al546      Al  0.04201123  0.03150768  0.27054376     1.55600
O547        O  0.00980497  0.10061341  0.27749294    -0.77500
C548        C  0.06116141  0.07372198  0.29604273     0.98400
C549        C  0.02958073  0.00306337  0.31274582     0.93300
O550        O  0.01940870  0.01845346  0.30695635    -0.82800
O551        O  0.21822167  0.15168202  0.32510211    -0.82300
C552        C  0.18855260  0.14890988  0.23352595     0.97100
O553        O  0.18872300  0.12660842  0.25029846    -0.71400
O554        O  0.21253895  0.11155946  0.25740459    -0.75000
Al555      Al  0.19943730  0.12164391  0.28082963     1.49000
C556        C  0.22436929  0.11441118  0.26171418     0.92300
O557        O  0.22391032  0.19374647  0.26119882    -0.81200
O558        O  0.19424434  0.21337232  0.30646976    -0.74800
Al559      Al  0.22015739  0.17226342  0.29265950     1.90100
O560        O  0.20612091  0.22210753  0.25894594    -0.73800
O561        O  0.17790094  0.17141536  0.28547988    -0.73700
O562        O  0.19150487  0.17717098  0.23980753    -0.79300
O563        O  0.18542931  0.12761403  0.30372701    -0.77500
O564        O  0.20425967  0.16247795  0.28256876    -1.13700
O565        O  0.20958115  0.10716251  0.31065885    -0.72900
C566        C  0.21593250  0.12211497  0.32789087     0.97900
C567        C  0.21764406  0.21703445  0.25182701     0.94300
Al568      Al  0.19328583  0.19348628  0.27356566     1.55600
O569        O  0.22845998  0.13480589  0.27788355    -0.77500
C570        C  0.17611389  0.14621420  0.29888669     0.98400
C571        C  0.20459907  0.22367974  0.31622312     0.93300
O572        O  0.21534737  0.21161065  0.30972034    -0.82800
O573        O  0.02544339  0.15533644  0.90984284    -0.82300
C574        C  0.05479333  0.15665423  0.00243214     0.97100
O575        O  0.05530202  0.13476009  0.98545449    -0.71400
O576        O  0.03203523  0.11502616  0.97737845    -0.75000
Al577      Al  0.04504419  0.12853555  0.95465371     1.49000
C578        C  0.02024800  0.11482296  0.97187211     0.92300
O579        O  0.01779584  0.19518817  0.97444514    -0.81200
O580        O  0.04687886  0.22229219  0.93010809    -0.74800
Al581      Al  0.02257942  0.17501376  0.94270229     1.90100
O582        O  0.03471053  0.22642023  0.97740553    -0.73800
O583        O  0.06467898  0.18292885  0.95078627    -0.73700
O584        O  0.05087306  0.18438592  0.99645179    -0.79300
O585        O  0.05908577  0.13766790  0.93234860    -0.77500
O586        O  0.03876112  0.16831002  0.95313325    -1.13700
O587        O  0.03576893  0.11299859  0.92461617    -0.72900
C588        C  0.02885248  0.12628740  0.90735941     0.97900
C589        C  0.02325794  0.21963860  0.98385560     0.94300
Al590      Al  0.04853591  0.20125397  0.96275437     1.55600
O591        O  0.01561350  0.13551314  0.95646084    -0.77500
C592        C  0.06757468  0.15835868  0.93743616     0.98400
C593        C  0.03610904  0.23120637  0.92106548     0.93300
O594        O  0.02595587  0.21586719  0.92664670    -0.82800
O595        O  0.22104785  0.06603782  0.90985647    -0.82300
C596        C  0.19343175  0.06767965  0.00488392     0.97100
O597        O  0.19303975  0.08934627  0.98765263    -0.71400
O598        O  0.21632215  0.10738447  0.97735840    -0.75000
Al599      Al  0.20271956  0.09444139  0.95598909     1.49000
C600        C  0.22799952  0.10645187  0.97109076     0.92300
O601        O  0.22985324  0.02561533  0.97370223    -0.81200
O602        O  0.19915742  0.00161606  0.93325288    -0.74800
Al603      Al  0.22442724  0.04625593  0.94243518     1.90100
O604        O  0.21257467  0.99626126  0.97919656    -0.73800
O605        O  0.18244284  0.04145163  0.95483833    -0.73700
O606        O  0.19731107  0.03980815  0.99930927    -0.79300
O607        O  0.18821095  0.08566961  0.93497358    -0.77500
O608        O  0.20860428  0.05434691  0.95454396    -1.13700
O609        O  0.21131828  0.10901634  0.92487302    -0.72900
C610        C  0.21752154  0.09493065  0.90702002     0.97900
C611        C  0.22430167  0.00195242  0.98420195     0.94300
Al612      Al  0.19869015  0.02240940  0.96563535     1.55600
O613        O  0.23217324  0.08550760  0.95539046    -0.77500
C614        C  0.17964898  0.06543365  0.94068437     0.98400
C615        C  0.20926345  0.99211760  0.92202206     0.93300
O616        O  0.21999162  0.00553329  0.92656565    -0.82800
O617        O  0.27780693  0.26254174  0.66701290    -0.82300
C618        C  0.29729347  0.33619704  0.75017003     0.97100
O619        O  0.30193995  0.30970294  0.74263407    -0.71400
O620        O  0.28496427  0.26371514  0.74064448    -0.75000
Al621      Al  0.29675723  0.28064257  0.71588813     1.49000
C622        C  0.27375629  0.25308551  0.73706770     0.92300
O623        O  0.26033424  0.31939109  0.71295863    -0.81200
O624        O  0.28617341  0.34968220  0.66216665    -0.74800
Al625      Al  0.26994570  0.29197804  0.69037688     1.90100
O626        O  0.27128625  0.36311178  0.70426859    -0.73800
O627        O  0.30646834  0.34519923  0.69326937    -0.73700
O628        O  0.29056822  0.35332150  0.73516009    -0.79300
O629        O  0.31051903  0.29367371  0.69369850    -0.77500
O630        O  0.28511689  0.30706848  0.70155670    -1.13700
O631        O  0.29374375  0.24649750  0.69208390    -0.72900
C632        C  0.28677815  0.24291430  0.67217580     0.97900
C633        C  0.26152435  0.34950153  0.71358793     0.94300
Al634      Al  0.28841077  0.34906853  0.69890354     1.55600
O635        O  0.26788087  0.25934449  0.71626551    -0.77500
C636        C  0.31413798  0.32213792  0.68961408     0.98400
C637        C  0.27570999  0.34201426  0.65123693     0.93300
O638        O  0.26830184  0.32169426  0.66180099    -0.82800
O639        O  0.46623522  0.47799058  0.68232553    -0.82300
C640        C  0.43750653  0.41410584  0.75579809     0.97100
O641        O  0.44135008  0.44227629  0.75123450    -0.71400
O642        O  0.45684588  0.48704489  0.73390019    -0.75000
Al643      Al  0.44368332  0.46077172  0.71815658     1.49000
C644        C  0.46828328  0.48088916  0.74081649     0.92300
O645        O  0.47762209  0.39861415  0.71306109    -0.81200
O646        O  0.45785998  0.37540244  0.67765873    -0.74800
Al647      Al  0.47027926  0.43744040  0.69873004     1.90100
O648        O  0.46091955  0.37490024  0.73061754    -0.73800
O649        O  0.43434897  0.39867387  0.68484633    -0.73700
O650        O  0.43746322  0.39317073  0.73801397    -0.79300
O651        O  0.42796411  0.44191676  0.70529886    -0.77500
O652        O  0.45404887  0.42904769  0.70795560    -1.13700
O653        O  0.44519016  0.48233426  0.68613059    -0.72900
C654        C  0.45568292  0.49152008  0.67624379     0.97900
C655        C  0.47288222  0.37729611  0.72769609     0.94300
Al656      Al  0.44816373  0.38895868  0.70765798     1.55600
O657        O  0.47421137  0.45743711  0.73090473    -0.77500
C658        C  0.42554432  0.41836664  0.69057197     0.98400
C659        C  0.46494867  0.38966114  0.66133538     0.93300
O660        O  0.46859682  0.41811292  0.66550012    -0.82800
O661        O  0.27402857  0.45851555  0.06985548    -0.82300
C662        C  0.29245133  0.38857031  0.98429474     0.97100
O663        O  0.29742121  0.41444673  0.99229261    -0.71400
O664        O  0.28033189  0.46024941  0.99621643    -0.75000
Al665      Al  0.29263785  0.44255215  0.02000048     1.49000
C666        C  0.26914397  0.47060776  0.00081500     0.92300
O667        O  0.25655815  0.40186362  0.02390792    -0.81200
O668        O  0.28361895  0.37222864  0.07304407    -0.74800
Al669      Al  0.26621862  0.42944273  0.04650243     1.90100
O670        O  0.26794475  0.35872196  0.03251407    -0.73800
O671        O  0.30300997  0.37743684  0.03988917    -0.73700
O672        O  0.28623327  0.37054955  0.99949765    -0.79300
O673        O  0.30697723  0.42885452  0.04106548    -0.77500
O674        O  0.28136818  0.41539949  0.03438606    -1.13700
O675        O  0.28972830  0.47583617  0.04483457    -0.72900
C676        C  0.28272246  0.47875648  0.06478989     0.97900
C677        C  0.25795760  0.37173746  0.02358083     0.94300
Al678      Al  0.28498315  0.37347522  0.03608581     1.55600
O679        O  0.26352302  0.46287489  0.02153163    -0.77500
C680        C  0.31069751  0.40014029  0.04398199     0.98400
C681        C  0.27332179  0.37963681  0.08482962     0.93300
O682        O  0.26541261  0.39923144  0.07469848    -0.82800
O683        O  0.46517559  0.27816552  0.06853235    -0.82300
C684        C  0.44458060  0.35222826  0.98612174     0.97100
O685        O  0.44081903  0.32457840  0.99289799    -0.71400
O686        O  0.45839211  0.27928016  0.99562746    -0.75000
Al687      Al  0.44597561  0.29567581  0.01982864     1.49000
C688        C  0.46996480  0.27119870  0.99935224     0.92300
O689        O  0.48170147  0.33961569  0.02507754    -0.81200
O690        O  0.45455497  0.36456999  0.07471476    -0.74800
Al691      Al  0.47240865  0.30980364  0.04634755     1.90100
O692        O  0.46960020  0.38133964  0.03391926    -0.73800
O693        O  0.43499763  0.35912382  0.04231158    -0.73700
O694        O  0.45091007  0.36973460  0.00150376    -0.79300
O695        O  0.43147862  0.30754143  0.04111544    -0.77500
O696        O  0.45700582  0.32319598  0.03478063    -1.13700
O697        O  0.44919809  0.26177229  0.04389963    -0.72900
C698        C  0.45643559  0.25807854  0.06341346     0.97900
C699        C  0.47984612  0.36955449  0.02516546     0.94300
Al700      Al  0.45283466  0.36480933  0.03785120     1.55600
O701        O  0.47557286  0.27910900  0.01997697    -0.77500
C702        C  0.42750720  0.33578348  0.04524558     0.98400
C703        C  0.46484081  0.35671309  0.08630410     0.93300
O704        O  0.47282281  0.33789250  0.07564497    -0.82800
C705        C  0.32421641  0.39179131  0.05093040    -0.03700
C706        C  0.32712691  0.36022720  0.05893681    -0.06300
C707        C  0.33987839  0.34990885  0.06156661    -0.21400
C708        C  0.35015055  0.37077945  0.05643284     0.24400
C709        C  0.34728641  0.40287254  0.04937571    -0.18900
C710        C  0.33443540  0.41327279  0.04678042    -0.08900
C711        C  0.36352465  0.35723828  0.05697471    -0.19200
C712        C  0.37427778  0.37522049  0.05847673    -0.24000
C713        C  0.38774739  0.36225500  0.05771195     0.26400
C714        C  0.39781009  0.38357175  0.06329010    -0.20700
C715        C  0.41065166  0.37413154  0.06063709    -0.10400
C716        C  0.41389544  0.34298020  0.05221252    -0.10900
C717        C  0.40390307  0.32098290  0.04762455    -0.03800
C718        C  0.39094070  0.33050949  0.05024848    -0.19000
H719        H  0.31950308  0.34301339  0.06238737     0.10100
H720        H  0.34171826  0.32515607  0.06704944     0.10200
H721        H  0.35485735  0.41969406  0.04469583     0.09900
H722        H  0.33251769  0.43759215  0.04028377     0.11000
H723        H  0.36439768  0.33126472  0.05654856     0.11100
H724        H  0.37327163  0.40103540  0.06067734     0.13000
H725        H  0.39573941  0.40807096  0.06910679     0.09500
H726        H  0.41807989  0.39176449  0.06440274     0.11600
H727        H  0.40608176  0.29694788  0.04083043     0.08200
H728        H  0.38356700  0.31325101  0.04540836     0.10900
C729        C  0.43349042  0.40526745  0.78235493    -0.03700
C730        C  0.43209707  0.42907797  0.80144429    -0.06300
C731        C  0.43012260  0.42057910  0.82733749    -0.21400
C732        C  0.42968923  0.38801924  0.83471691     0.24400
C733        C  0.43016377  0.36432061  0.81539031    -0.18900
C734        C  0.43208340  0.37282640  0.78943966    -0.08900
C735        C  0.42946399  0.37791098  0.86234707    -0.19200
C736        C  0.43481024  0.39574796  0.88130923    -0.24000
C737        C  0.43659889  0.38461544  0.90848283     0.26400
C738        C  0.44553703  0.40088823  0.92411642    -0.20700
C739        C  0.44800420  0.39070916  0.94945852    -0.10400
C740        C  0.44156506  0.36395296  0.95974298    -0.10900
C741        C  0.43240741  0.34803003  0.94436431    -0.03800
C742        C  0.42986957  0.35834948  0.91906028    -0.19000
H743        H  0.43289867  0.45430507  0.79649237     0.10100
H744        H  0.42920477  0.43957049  0.84153325     0.10200
H745        H  0.42966743  0.33908587  0.82052756     0.09900
H746        H  0.43304760  0.35393092  0.77513203     0.11000
H747        H  0.42611419  0.35378282  0.86649249     0.11100
H748        H  0.43913806  0.41866098  0.87632784     0.13000
H749        H  0.45081646  0.42127929  0.91653889     0.09500
H750        H  0.45513256  0.40342729  0.96082100     0.11600
H751        H  0.42717596  0.32754953  0.95190820     0.08200
H752        H  0.42261889  0.34570080  0.90806365     0.10900
C753        C  0.29936892  0.34649257  0.77720605    -0.03700
C754        C  0.30951399  0.33342972  0.79192172    -0.06300
C755        C  0.31075297  0.34096378  0.81820192    -0.21400
C756        C  0.30165694  0.36083602  0.83034554     0.24400
C757        C  0.29167813  0.37453213  0.81555539    -0.18900
C758        C  0.29061969  0.36765681  0.78913186    -0.08900
C759        C  0.30268048  0.36676378  0.85850634    -0.19200
C760        C  0.29229331  0.36585934  0.87404260    -0.24000
C761        C  0.29315842  0.37025016  0.90245378     0.26400
C762        C  0.28466296  0.35339642  0.91862284    -0.20700
C763        C  0.28488938  0.35810602  0.94544421    -0.10400
C764        C  0.29342746  0.38037757  0.95650440    -0.10900
C765        C  0.30198373  0.39713536  0.94028589    -0.03800
C766        C  0.30190161  0.39200506  0.91352247    -0.19000
H767        H  0.31640075  0.31710632  0.78317626     0.10100
H768        H  0.31856009  0.33038612  0.82928249     0.10200
H769        H  0.28468691  0.39044563  0.82445762     0.09900
H770        H  0.28270063  0.37801478  0.77824489     0.11000
H771        H  0.31223483  0.36923193  0.86686384     0.11100
H772        H  0.28295447  0.35983682  0.86585121     0.13000
H773        H  0.27779081  0.33667203  0.91044804     0.09500
H774        H  0.27806178  0.34517853  0.95740535     0.11600
H775        H  0.30856537  0.41472703  0.94822524     0.08200
H776        H  0.30836713  0.40587196  0.90144550     0.10900
C777        C  0.41206979  0.41217768  0.68227761    -0.03700
C778        C  0.40210570  0.43292195  0.69016778    -0.06300
C779        C  0.38920431  0.42444901  0.68653170    -0.21400
C780        C  0.38590214  0.39495558  0.67513666     0.24400
C781        C  0.39585810  0.37499656  0.66580744    -0.18900
C782        C  0.40880126  0.38353721  0.66937865    -0.08900
C783        C  0.37201071  0.38595808  0.67389414    -0.19200
C784        C  0.36769483  0.35539665  0.67233325    -0.24000
C785        C  0.35377771  0.34655144  0.67424932     0.26400
C786        C  0.35044795  0.31519323  0.68193283    -0.20700
C787        C  0.33752380  0.30661112  0.68575890    -0.10400
C788        C  0.32762816  0.32927121  0.68195073    -0.10900
C789        C  0.33091317  0.36016273  0.67307205    -0.03800
C790        C  0.34379386  0.36865555  0.66907557    -0.19000
H791        H  0.40425625  0.45517546  0.70012019     0.10100
H792        H  0.38175715  0.44052563  0.69359105     0.10200
H793        H  0.39373038  0.35262418  0.65607781     0.09900
H794        H  0.41624542  0.36707478  0.66292348     0.11000
H795        H  0.36512689  0.40531418  0.67675437     0.11100
H796        H  0.37461562  0.33578497  0.67177634     0.13000
H797        H  0.35790350  0.29752529  0.68579975     0.09500
H798        H  0.33532236  0.28266184  0.69268397     0.11600
H799        H  0.32350609  0.37808711  0.66965680     0.08200
H800        H  0.34582309  0.39262912  0.66210598     0.10900
C801        C  0.23603503  0.13317781  0.97974510    -0.03700
C802        C  0.23580126  0.14215314  0.00592875    -0.06300
C803        C  0.23907603  0.17341097  0.01316752    -0.21400
C804        C  0.24216672  0.19635792  0.99422201     0.24400
C805        C  0.24346757  0.18656788  0.96825356    -0.18900
C806        C  0.24048508  0.15505293  0.96110641    -0.08900
C807        C  0.24331938  0.23043279  0.00208288    -0.19200
C808        C  0.23980010  0.25514750  0.98665258    -0.24000
C809        C  0.24097072  0.28897455  0.99519650     0.26400
C810        C  0.24524304  0.31229613  0.97751272    -0.20700
C811        C  0.24903647  0.34262848  0.98633320    -0.10400
C812        C  0.24835994  0.34998183  0.01282045    -0.10900
C813        C  0.24262061  0.32805777  0.02990853    -0.03800
C814        C  0.23889997  0.29776200  0.02117093    -0.19000
H815        H  0.23216121  0.12570516  0.02047945     0.10100
H816        H  0.23822481  0.18032406  0.03334499     0.10200
H817        H  0.24626998  0.20347756  0.95333348     0.09900
H818        H  0.24045806  0.14870798  0.94072897     0.11000
H819        H  0.24654903  0.23517097  0.02174627     0.11100
H820        H  0.23664624  0.25070501  0.96691186     0.13000
H821        H  0.24675425  0.30610148  0.95734313     0.09500
H822        H  0.25380641  0.35888490  0.97302298     0.11600
H823        H  0.24229755  0.33309509  0.05051614     0.08200
H824        H  0.23517237  0.28060432  0.03505900     0.10900
C825        C  0.22151805  0.11323054  0.88355664    -0.03700
C826        C  0.21614423  0.14355770  0.87796298    -0.06300
C827        C  0.22097401  0.16232468  0.85755553    -0.21400
C828        C  0.23148467  0.15160192  0.84270033     0.24400
C829        C  0.23659639  0.12084655  0.84775294    -0.18900
C830        C  0.23163347  0.10185989  0.86785749    -0.08900
C831        C  0.23685956  0.17281011  0.82200849    -0.19200
C832        C  0.24950621  0.17315390  0.81582062    -0.24000
C833        C  0.25529849  0.19464169  0.79576787     0.26400
C834        C  0.26845239  0.20227982  0.79754594    -0.20700
C835        C  0.27441324  0.22145808  0.77870640    -0.10400
C836        C  0.26740418  0.23306490  0.75730442    -0.10900
C837        C  0.25424057  0.22527858  0.75540903    -0.03800
C838        C  0.24824063  0.20637812  0.77442830    -0.19000
H839        H  0.20834301  0.15302993  0.88965494     0.10100
H840        H  0.21674755  0.18574253  0.85388066     0.10200
H841        H  0.24444556  0.11140086  0.83620635     0.09900
H842        H  0.23601508  0.07865896  0.87163968     0.11000
H843        H  0.23037160  0.19001150  0.81295843     0.11100
H844        H  0.25609639  0.15808727  0.82685312     0.13000
H845        H  0.27415327  0.19340769  0.81365494     0.09500
H846        H  0.28455970  0.22690204  0.78076844     0.11600
H847        H  0.24855338  0.23377555  0.73916043     0.08200
H848        H  0.23817410  0.20041197  0.77200887     0.10900
C849        C  0.08122033  0.15220511  0.92992418    -0.03700
C850        C  0.09107396  0.17261665  0.93867517    -0.06300
C851        C  0.10404766  0.16420913  0.93537840    -0.21400
C852        C  0.10753966  0.13508215  0.92349648     0.24400
C853        C  0.09771419  0.11535235  0.91354960    -0.18900
C854        C  0.08471068  0.12382812  0.91675803    -0.08900
C855        C  0.12148272  0.12620495  0.92225298    -0.19200
C856        C  0.12589506  0.09562629  0.92111179    -0.24000
C857        C  0.13984530  0.08707090  0.92341562     0.26400
C858        C  0.14332853  0.05707046  0.93392300    -0.20700
C859        C  0.15629201  0.04934759  0.93856122    -0.10400
C860        C  0.16610291  0.07131696  0.93241867    -0.10900
C861        C  0.16265842  0.10054004  0.92043729    -0.03800
C862        C  0.14970453  0.10833872  0.91598119    -0.19000
H863        H  0.08877324  0.19456237  0.94897254     0.10100
H864        H  0.11139592  0.18005380  0.94300266     0.10200
H865        H  0.10000574  0.09323599  0.90352222     0.09900
H866        H  0.07738016  0.10758035  0.90966559     0.11000
H867        H  0.12834438  0.14558140  0.92485647     0.11100
H868        H  0.11904191  0.07596233  0.92099839     0.13000
H869        H  0.13595914  0.04001624  0.93950422     0.09500
H870        H  0.15859639  0.02657743  0.94768647     0.11600
H871        H  0.16996050  0.11795419  0.91525394     0.08200
H872        H  0.14746574  0.13117507  0.90695347     0.10900
C873        C  0.22395262  0.23869548  0.23272331    -0.03700
C874        C  0.21699074  0.26337842  0.22039804    -0.06300
C875        C  0.22301892  0.28366680  0.20243008    -0.21400
C876        C  0.23616690  0.28002700  0.19641410     0.24400
C877        C  0.24311222  0.25510368  0.20864425    -0.18900
C878        C  0.23707015  0.23476877  0.22655044    -0.08900
C879        C  0.24200204  0.30216695  0.17680614    -0.19200
C880        C  0.25476582  0.30493702  0.17196616    -0.24000
C881        C  0.26007939  0.32641212  0.15138505     0.26400
C882        C  0.27185577  0.31840517  0.13950915    -0.20700
C883        C  0.27660587  0.33662101  0.11869708    -0.10400
C884        C  0.26971998  0.36347625  0.10950716    -0.10900
C885        C  0.25837181  0.37264671  0.12252100    -0.03800
C886        C  0.25362468  0.35443665  0.14321631    -0.19000
H887        H  0.20686104  0.26697169  0.22455923     0.10100
H888        H  0.21736196  0.30240845  0.19321675     0.10200
H889        H  0.25314217  0.25070461  0.20433373     0.09900
H890        H  0.24271253  0.21587021  0.23556802     0.11000
H891        H  0.23530346  0.31664576  0.16557302     0.11100
H892        H  0.26162766  0.29016695  0.18244904     0.13000
H893        H  0.27714603  0.29724543  0.14568812     0.09500
H894        H  0.28537669  0.32890097  0.10914992     0.11600
H895        H  0.25290044  0.39343954  0.11619559     0.08200
H896        H  0.24483646  0.36229551  0.15256927     0.10900
C897        C  0.18548331  0.14188889  0.20606924    -0.03700
C898        C  0.18455786  0.16711955  0.18798565    -0.06300
C899        C  0.18358633  0.16066699  0.16149471    -0.21400
C900        C  0.18346073  0.12890487  0.15237345     0.24400
C901        C  0.18391597  0.10357140  0.17056133    -0.18900
C902        C  0.18486404  0.11005539  0.19712736    -0.08900
C903        C  0.18403729  0.12355436  0.12384869    -0.19200
C904        C  0.18140502  0.09531829  0.11223727    -0.24000
C905        C  0.18363358  0.08916287  0.08416014     0.26400
C906        C  0.18428011  0.11393090  0.06553184    -0.20700
C907        C  0.18718224  0.10689717  0.03964591    -0.10400
C908        C  0.18945817  0.07503420  0.03181091    -0.10900
C909        C  0.18836848  0.05026807  0.05022840    -0.03800
C910        C  0.18541292  0.05726971  0.07603890    -0.19000
H911        H  0.18503296  0.19194798  0.19421364     0.10100
H912        H  0.18329480  0.18064534  0.14799251     0.10200
H913        H  0.18417616  0.07872915  0.16450045     0.09900
H914        H  0.18571937  0.09011087  0.21055220     0.11000
H915        H  0.18728405  0.14368853  0.11220123     0.11100
H916        H  0.17818007  0.07512594  0.12382788     0.13000
H917        H  0.18254121  0.13874307  0.07071284     0.09500
H918        H  0.18786263  0.12648640  0.02585926     0.11600
H919        H  0.18996707  0.02543503  0.04477942     0.08200
H920        H  0.18485200  0.03770248  0.08987720     0.10900
C921        C  0.05832285  0.14954650  0.02971515    -0.03700
C922        C  0.05802690  0.17408028  0.04841119    -0.06300
C923        C  0.05980198  0.16697585  0.07465542    -0.21400
C924        C  0.06180121  0.13518969  0.08295284     0.24400
C925        C  0.06274567  0.11077399  0.06411775    -0.18900
C926        C  0.06099151  0.11791359  0.03778732    -0.08900
C927        C  0.06243394  0.12880799  0.11137998    -0.19200
C928        C  0.05983735  0.09998749  0.12223203    -0.24000
C929        C  0.05844144  0.09415866  0.15070286     0.26400
C930        C  0.05868264  0.11893209  0.16936388    -0.20700
C931        C  0.05603981  0.11234926  0.19544263    -0.10400
C932        C  0.05305528  0.08099473  0.20354968    -0.10900
C933        C  0.05323455  0.05611577  0.18516099    -0.03800
C934        C  0.05591446  0.06264281  0.15911267    -0.19000
H935        H  0.05605436  0.19873444  0.04286640     0.10100
H936        H  0.05916301  0.18632657  0.08864214     0.10200
H937        H  0.06473354  0.08613052  0.06950539     0.09900
H938        H  0.06136775  0.09849300  0.02383396     0.11000
H939        H  0.06418311  0.14945740  0.12359865     0.11100
H940        H  0.05783361  0.07970957  0.10969797     0.13000
H941        H  0.06050481  0.14362558  0.16415437     0.09500
H942        H  0.05593487  0.13207518  0.20913130     0.11600
H943        H  0.05100239  0.03165595  0.19077115     0.08200
H944        H  0.05567435  0.04301547  0.14533495     0.10900
C945        C  0.16287943  0.13655140  0.30668449    -0.03700
C946        C  0.16067814  0.10559278  0.31677838    -0.06300
C947        C  0.14813750  0.09386891  0.31966050    -0.21400
C948        C  0.13745392  0.11288224  0.31294600     0.24400
C949        C  0.13960548  0.14445137  0.30398222    -0.18900
C950        C  0.15218185  0.15611043  0.30087338    -0.08900
C951        C  0.12438881  0.09800686  0.31329206    -0.19200
C952        C  0.11338006  0.11507663  0.31521396    -0.24000
C953        C  0.10024883  0.10078963  0.31329482     0.26400
C954        C  0.08981973  0.11811538  0.32351579    -0.20700
C955        C  0.07717091  0.10790031  0.31944734    -0.10400
C956        C  0.07456986  0.08020398  0.30470432    -0.10900
C957        C  0.08500994  0.06195839  0.29540115    -0.03800
C958        C  0.09773178  0.07213587  0.29962181    -0.19000
H959        H  0.16866962  0.08972761  0.32128376     0.10100
H960        H  0.14678801  0.06947080  0.32650519     0.10200
H961        H  0.13166176  0.15966932  0.29803906     0.09900
H962        H  0.15352696  0.17992593  0.29282980     0.11000
H963        H  0.12390126  0.07197567  0.31222625     0.11100
H964        H  0.11392627  0.14077924  0.31866874     0.13000
H965        H  0.09144388  0.14025258  0.33405917     0.09500
H966        H  0.06938792  0.12264434  0.32688870     0.11600
H967        H  0.08334405  0.04077045  0.28370636     0.08200
H968        H  0.10548033  0.05843213  0.29095111     0.10900
C969        C  0.97568368  0.24234883  0.48016911    -0.03700
C970        C  0.98508303  0.22034489  0.48867168    -0.06300
C971        C  0.99160660  0.20083984  0.47098447    -0.21400
C972        C  0.98914923  0.20343733  0.44434978     0.24400
C973        C  0.97977131  0.22554940  0.43569555    -0.18900
C974        C  0.97301992  0.24467931  0.45351893    -0.08900
C975        C  0.99614467  0.18169420  0.42637616    -0.19200
C976        C  0.99943043  0.19012183  0.40207836    -0.24000
C977        C  0.00653642  0.16828233  0.38426838     0.26400
C978        C  0.01425251  0.18162519  0.36472872    -0.20700
C979        C  0.02037870  0.16191433  0.34654449    -0.10400
C980        C  0.01875450  0.12834910  0.34724326    -0.10900
C981        C  0.01124078  0.11490345  0.36714409    -0.03800
C982        C  0.00520140  0.13463071  0.38548293    -0.19000
H983        H  0.98729753  0.21794469  0.50910762     0.10100
H984        H  0.99870461  0.18383213  0.47812551     0.10200
H985        H  0.97746778  0.22761203  0.41529062     0.09900
H986        H  0.96584486  0.26154023  0.44647073     0.11000
H987        H  0.99936503  0.15869996  0.43404980     0.11100
H988        H  0.99735236  0.21435771  0.39533385     0.13000
H989        H  0.01538700  0.20745769  0.36328758     0.09500
H990        H  0.02596496  0.17312298  0.33129575     0.11600
H991        H  0.00964329  0.08920484  0.36801097     0.08200
H992        H  0.99906930  0.12352373  0.39987436     0.10900
C993        C  0.82927004  0.40931334  0.55672771    -0.03700
C994        C  0.83133207  0.38343812  0.57389491    -0.06300
C995        C  0.84369071  0.37103865  0.57791319    -0.21400
C996        C  0.85432460  0.38446464  0.56523995     0.24400
C997        C  0.85241355  0.41157743  0.54922457    -0.18900
C998        C  0.83998919  0.42390228  0.54504223    -0.08900
C999        C  0.86699012  0.36781741  0.56714096    -0.19200
C1000       C  0.87826172  0.38331027  0.56478631    -0.24000
C1001       C  0.89100895  0.36694981  0.56412603     0.26400
C1002       C  0.90190292  0.38500684  0.57056559    -0.20700
C1003       C  0.91422685  0.37272139  0.56639557    -0.10400
C1004       C  0.91599872  0.34211575  0.55537338    -0.10900
C1005       C  0.90514407  0.32302843  0.55039040    -0.03800
C1006       C  0.89270657  0.33538158  0.55467739    -0.19000
H1007       H  0.82329029  0.37165851  0.58329273     0.10100
H1008       H  0.84489730  0.35022674  0.59035078     0.10200
H1009       H  0.86036904  0.42215976  0.53870976     0.09900
H1010       H  0.83870548  0.44356509  0.53149106     0.11000
H1011       H  0.86697762  0.34212415  0.57092522     0.11100
H1012       H  0.87821728  0.40938307  0.56347557     0.13000
H1013       H  0.90088109  0.40926574  0.57793302     0.09500
H1014       H  0.92241886  0.38792277  0.57065595     0.11600
H1015       H  0.90623978  0.29951860  0.54164525     0.08200
H1016       H  0.88450855  0.32095551  0.54908791     0.10900
C1017       C  0.94755963  0.38294150  0.27714437    -0.03700
C1018       C  0.95300014  0.35451439  0.28713203    -0.06300
C1019       C  0.95090912  0.34573376  0.31300840    -0.21400
C1020       C  0.94350791  0.36538781  0.32940207     0.24400
C1021       C  0.93774397  0.39325779  0.31917422    -0.18900
C1022       C  0.93977899  0.40195485  0.29337962    -0.08900
C1023       C  0.94210774  0.35661185  0.35713525    -0.19200
C1024       C  0.94099371  0.37894456  0.37588697    -0.24000
C1025       C  0.94111607  0.37079371  0.40382360     0.26400
C1026       C  0.94699033  0.39211331  0.42119129    -0.20700
C1027       C  0.94806155  0.38431021  0.44744420    -0.10400
C1028       C  0.94304623  0.35523210  0.45691925    -0.10900
C1029       C  0.93660057  0.33458065  0.43970478    -0.03800
C1030       C  0.93566765  0.34224354  0.41336634    -0.19000
H1031       H  0.95897993  0.33927866  0.27506332     0.10100
H1032       H  0.95535206  0.32397696  0.32042575     0.10200
H1033       H  0.93162879  0.40838306  0.33102905     0.09900
H1034       H  0.93531142  0.42379776  0.28622331     0.11000
H1035       H  0.94320167  0.33145117  0.36242194     0.11100
H1036       H  0.94132473  0.40427673  0.37078868     0.13000
H1037       H  0.95115238  0.41438790  0.41426458     0.09500
H1038       H  0.95306455  0.40074747  0.46020270     0.11600
H1039       H  0.93256957  0.31208133  0.44644674     0.08200
H1040       H  0.93075442  0.32578017  0.40050441     0.10900
C1041       C  0.99551497  0.36378468  0.21859433    -0.03700
C1042       C  0.99503840  0.35716257  0.24524467    -0.06300
C1043       C  0.99960033  0.32773301  0.25469287    -0.21400
C1044       C  0.00449272  0.30471072  0.23744519     0.24400
C1045       C  0.00666550  0.31340819  0.21144936    -0.18900
C1046       C  0.00211136  0.34276285  0.20205496    -0.08900
C1047       C  0.00561754  0.27085984  0.24602675    -0.19200
C1048       C  0.00209614  0.24656998  0.23032231    -0.24000
C1049       C  0.00288734  0.21239438  0.23790490     0.26400
C1050       C  0.00661549  0.18992915  0.21910984    -0.20700
C1051       C  0.00913438  0.15815499  0.22613863    -0.10400
C1052       C  0.00754115  0.14817394  0.25190824    -0.10900
C1053       C  0.00258063  0.16983398  0.27023517    -0.03800
C1054       C  0.00036148  0.20192168  0.26333333    -0.19000
H1055       H  0.98969573  0.37284203  0.25814851     0.10100
H1056       H  0.99803080  0.32166186  0.27487612     0.10200
H1057       H  0.01090393  0.29651426  0.19793857     0.09900
H1058       H  0.00236596  0.34730995  0.18136073     0.11000
H1059       H  0.00846846  0.26601494  0.26592227     0.11100
H1060       H  0.99909009  0.25169906  0.21056242     0.13000
H1061       H  0.00844239  0.19747965  0.19933558     0.09500
H1062       H  0.01318068  0.14190543  0.21187639     0.11600
H1063       H  0.00156430  0.16271501  0.29035416     0.08200
H1064       H  0.99711244  0.21866691  0.27801862     0.10900
C1065       C  0.01621229  0.24118767  0.00200917    -0.03700
C1066       C  0.00324152  0.23565487  0.00857644    -0.06300
C1067       C  0.99664344  0.25662049  0.02532542    -0.21400
C1068       C  0.00290867  0.28365396  0.03588149     0.24400
C1069       C  0.01586444  0.28895315  0.02927208    -0.18900
C1070       C  0.02241430  0.26812655  0.01258583    -0.08900
C1071       C  0.99671022  0.30655822  0.05443286    -0.19200
C1072       C  0.98409577  0.30716254  0.06094930    -0.24000
C1073       C  0.97883449  0.32956476  0.08098701     0.26400
C1074       C  0.96798746  0.32041361  0.09551155    -0.20700
C1075       C  0.96372216  0.33919634  0.11641361    -0.10400
C1076       C  0.97018479  0.36769567  0.12310524    -0.10900
C1077       C  0.98041016  0.37805275  0.10732574    -0.03800
C1078       C  0.98464151  0.35935655  0.08645444    -0.19000
H1079       H  0.99817537  0.21511829  0.00074487     0.10100
H1080       H  0.98674314  0.25120206  0.03003724     0.10200
H1081       H  0.02099580  0.30941476  0.03708701     0.09900
H1082       H  0.03238340  0.27321659  0.00796726     0.11000
H1083       H  0.00314078  0.32352070  0.06374829     0.11100
H1084       H  0.97751995  0.28973428  0.05272896     0.13000
H1085       H  0.96316180  0.29791469  0.09143987     0.09500
H1086       H  0.95575637  0.33060995  0.12805751     0.11600
H1087       H  0.98545811  0.40016602  0.11162893     0.08200
H1088       H  0.99260410  0.36814583  0.07496059     0.10900
C1089       C  0.80431242  0.35262022  0.27934169    -0.03700
C1090       C  0.81265126  0.33288501  0.29389600    -0.06300
C1091       C  0.81455787  0.33846342  0.32029695    -0.21400
C1092       C  0.80829983  0.36404328  0.33273156     0.24400
C1093       C  0.80012388  0.38421894  0.31807829    -0.18900
C1094       C  0.79819620  0.37859904  0.29162964    -0.08900
C1095       C  0.80980129  0.36752082  0.36124395    -0.19200
C1096       C  0.80792714  0.39557448  0.37364392    -0.24000
C1097       C  0.80805484  0.39962091  0.40230924     0.26400
C1098       C  0.80715951  0.43099078  0.41205998    -0.20700
C1099       C  0.80582101  0.43645311  0.43856374    -0.10400
C1100       C  0.80534083  0.41061997  0.45611828    -0.10900
C1101       C  0.80677567  0.37917730  0.44664338    -0.03800
C1102       C  0.80807336  0.37365221  0.41996506    -0.19000
H1103       H  0.81747881  0.31255587  0.28504617     0.10100
H1104       H  0.82081576  0.32244789  0.33113666     0.10200
H1105       H  0.79478426  0.40357344  0.32707545     0.09900
H1106       H  0.79159654  0.39397246  0.28101385     0.11000
H1107       H  0.81267699  0.34628644  0.37200340     0.11100
H1108       H  0.80607796  0.41702352  0.36221218     0.13000
H1109       H  0.80711613  0.45144653  0.39902874     0.09500
H1110       H  0.80477380  0.46101513  0.44520904     0.11600
H1111       H  0.80636021  0.35879741  0.45971281     0.08200
H1112       H  0.80857752  0.34901942  0.41344397     0.10900
C1113       C  0.91821052  0.39498310  0.18385029    -0.03700
C1114       C  0.91528958  0.36247167  0.17928032    -0.06300
C1115       C  0.90270840  0.35289125  0.17403247    -0.21400
C1116       C  0.89265322  0.37540430  0.17335553     0.24400
C1117       C  0.89560419  0.40823706  0.17690958    -0.18900
C1118       C  0.90827837  0.41788325  0.18217366    -0.08900
C1119       C  0.87932429  0.36307077  0.16966123    -0.19200
C1120       C  0.86866199  0.37972405  0.17596207    -0.24000
C1121       C  0.85547297  0.36596020  0.17535318     0.26400
C1122       C  0.84506270  0.38730798  0.17367772    -0.20700
C1123       C  0.83248216  0.37633738  0.17656258    -0.10400
C1124       C  0.82996103  0.34368556  0.18163833    -0.10900
C1125       C  0.84030485  0.32186187  0.18200239    -0.03800
C1126       C  0.85298591  0.33289871  0.17893226    -0.19000
H1127       H  0.92271527  0.34414796  0.18020236     0.10100
H1128       H  0.90077885  0.32755304  0.17117446     0.10200
H1129       H  0.88824423  0.42661512  0.17574595     0.09900
H1130       H  0.91025461  0.44311450  0.18540296     0.11000
H1131       H  0.87833280  0.33854628  0.16279701     0.11100
H1132       H  0.86947351  0.40435779  0.18257484     0.13000
H1133       H  0.84669052  0.41281706  0.17094471     0.09500
H1134       H  0.82473528  0.39384377  0.17599950     0.11600
H1135       H  0.83866785  0.29667045  0.18612256     0.08200
H1136       H  0.86078277  0.31575368  0.18089152     0.10900
C1137       C  0.46312007  0.72342166  0.58034119    -0.03700
C1138       C  0.47477830  0.71014293  0.58927837    -0.06300
C1139       C  0.47490032  0.68072199  0.60239202    -0.21400
C1140       C  0.46341628  0.66381298  0.60665287     0.24400
C1141       C  0.45167623  0.67788704  0.59886728    -0.18900
C1142       C  0.45154930  0.70732152  0.58577941    -0.08900
C1143       C  0.46409106  0.63181200  0.61941716    -0.19200
C1144       C  0.45493862  0.60916106  0.61677221    -0.24000
C1145       C  0.45548379  0.57770953  0.63028753     0.26400
C1146       C  0.44388591  0.56286456  0.63727933    -0.20700
C1147       C  0.44395014  0.53425547  0.65146211    -0.10400
C1148       C  0.45565220  0.51962551  0.65863697    -0.10900
C1149       C  0.46727886  0.53357995  0.65043338    -0.03800
C1150       C  0.46720838  0.56237834  0.63639341    -0.19000
H1151       H  0.48386448  0.72197584  0.58544180     0.10100
H1152       H  0.48404967  0.67066567  0.60854871     0.10200
H1153       H  0.44255509  0.66635131  0.60275009     0.09900
H1154       H  0.44239940  0.71703855  0.57932021     0.11000
H1155       H  0.47256510  0.62668868  0.63110178     0.11100
H1156       H  0.44642146  0.61406587  0.60519309     0.13000
H1157       H  0.43473435  0.57400867  0.63248676     0.09500
H1158       H  0.43482177  0.52402296  0.65734309     0.11600
H1159       H  0.47644987  0.52272757  0.65546165     0.08200
H1160       H  0.47632035  0.57257590  0.63045052     0.10900
C1161       C  0.28813739  0.01120291  0.57448912    -0.03700
C1162       C  0.27682647  0.02045930  0.58750105    -0.06300
C1163       C  0.27587604  0.05073612  0.59906299    -0.21400
C1164       C  0.28619296  0.07243929  0.59796103     0.24400
C1165       C  0.29762379  0.06291618  0.58534977    -0.18900
C1166       C  0.29859536  0.03255216  0.57390759    -0.08900
C1167       C  0.28442185  0.10503835  0.60929488    -0.19200
C1168       C  0.29424260  0.12464045  0.61554311    -0.24000
C1169       C  0.29233489  0.15625296  0.62829071     0.26400
C1170       C  0.30199305  0.16756261  0.64489883    -0.20700
C1171       C  0.30031530  0.19621098  0.65853275    -0.10400
C1172       C  0.28900315  0.21451224  0.65552519    -0.10900
C1173       C  0.27958948  0.20409910  0.63786188    -0.03800
C1174       C  0.28121694  0.17515596  0.62438613    -0.19000
H1175       H  0.26857773  0.00458766  0.58823752     0.10100
H1176       H  0.26696267  0.05740119  0.60860794     0.10200
H1177       H  0.30570195  0.07906175  0.58339519     0.09900
H1178       H  0.30737848  0.02630045  0.56372950     0.11000
H1179       H  0.27463768  0.11244605  0.61384744     0.11100
H1180       H  0.30409607  0.11635537  0.61335004     0.13000
H1181       H  0.31071145  0.15366776  0.64796021     0.09500
H1182       H  0.30780489  0.20374113  0.67181285     0.11600
H1183       H  0.27080824  0.21781223  0.63503640     0.08200
H1184       H  0.27376822  0.16763773  0.61103830     0.10900
C1185       C  0.26647920  0.97965718  0.47742333    -0.03700
C1186       C  0.25378552  0.96983267  0.47207833    -0.06300
C1187       C  0.24640052  0.98533036  0.45305370    -0.21400
C1188       C  0.25137150  0.01136132  0.43893523     0.24400
C1189       C  0.26409701  0.02132242  0.44418544    -0.18900
C1190       C  0.27155024  0.00562679  0.46320992    -0.08900
C1191       C  0.24309559  0.02645960  0.41841579    -0.19200
C1192       C  0.24451817  0.05690866  0.40978969    -0.24000
C1193       C  0.23604275  0.07250133  0.38982941     0.26400
C1194       C  0.23579626  0.10620792  0.38844586    -0.20700
C1195       C  0.22872254  0.12213659  0.36919199    -0.10400
C1196       C  0.22173344  0.10484001  0.35046658    -0.10900
C1197       C  0.22170182  0.07104921  0.35209085    -0.03800
C1198       C  0.22877513  0.05502788  0.37152387    -0.19000
H1199       H  0.24952847  0.94994046  0.48253926     0.10100
H1200       H  0.23668903  0.97695306  0.44941878     0.10200
H1201       H  0.26843463  0.04073740  0.43332504     0.09900
H1202       H  0.28131010  0.01371770  0.46668292     0.11000
H1203       H  0.23507275  0.01232825  0.41127609     0.11100
H1204       H  0.25188139  0.07185464  0.41856286     0.13000
H1205       H  0.24128156  0.12037882  0.40214505     0.09500
H1206       H  0.22906606  0.14815145  0.36853889     0.11600
H1207       H  0.21660089  0.05693671  0.33777044     0.08200
H1208       H  0.22889151  0.02903274  0.37146948     0.10900
C1209       C  0.33296922  0.90045216  0.55364629    -0.03700
C1210       C  0.33564300  0.87558690  0.57144537    -0.06300
C1211       C  0.34819990  0.86402832  0.57480961    -0.21400
C1212       C  0.35847600  0.87729658  0.56084564     0.24400
C1213       C  0.35595455  0.90312368  0.54382668    -0.18900
C1214       C  0.34332163  0.91455274  0.54025836    -0.08900
C1215       C  0.37142899  0.86189480  0.56287704    -0.19200
C1216       C  0.38251610  0.87809595  0.55958911    -0.24000
C1217       C  0.39551029  0.86271137  0.55988128     0.26400
C1218       C  0.40622349  0.88183914  0.56569339    -0.20700
C1219       C  0.41872822  0.86987396  0.56269758    -0.10400
C1220       C  0.42087065  0.83855238  0.55329678    -0.10900
C1221       C  0.41015518  0.81871653  0.54877192    -0.03800
C1222       C  0.39758542  0.83062757  0.55209697    -0.19000
H1223       H  0.32792457  0.86398492  0.58200250     0.10100
H1224       H  0.34984894  0.84409407  0.58795935     0.10200
H1225       H  0.36360319  0.91345144  0.53227217     0.09900
H1226       H  0.34158628  0.93328226  0.52606284     0.11000
H1227       H  0.37179386  0.83656014  0.56795007     0.11100
H1228       H  0.38212381  0.90399351  0.55695513     0.13000
H1229       H  0.40492060  0.90656532  0.57175265     0.09500
H1230       H  0.42672630  0.88590088  0.56639462     0.11600
H1231       H  0.41146451  0.79454699  0.54142609     0.08200
H1232       H  0.38957191  0.81527220  0.54707870     0.10900
C1233       C  0.46034709  0.02403363  0.15781267    -0.03700
C1234       C  0.47053308  0.03231343  0.14115684    -0.06300
C1235       C  0.47093231  0.06272476  0.12951611    -0.21400
C1236       C  0.46110751  0.08533635  0.13402316     0.24400
C1237       C  0.45076380  0.07674519  0.15021031    -0.18900
C1238       C  0.45037826  0.04643621  0.16186747    -0.08900
C1239       C  0.46224630  0.11805459  0.12258098    -0.19200
C1240       C  0.45201782  0.13730003  0.11809640    -0.24000
C1241       C  0.45312856  0.16938942  0.10572430     0.26400
C1242       C  0.44298493  0.18034273  0.09004704    -0.20700
C1243       C  0.44390853  0.20964009  0.07693976    -0.10400
C1244       C  0.45491418  0.22895222  0.07964111    -0.10900
C1245       C  0.46480009  0.21881273  0.09645308    -0.03800
C1246       C  0.46394665  0.18920866  0.10930797    -0.19000
H1247       H  0.47843277  0.01574276  0.13783896     0.10100
H1248       H  0.47903545  0.06877617  0.11722921     0.10200
H1249       H  0.44318208  0.09370189  0.15478664     0.09900
H1250       H  0.44246180  0.04098608  0.17480830     0.11000
H1251       H  0.47175681  0.12587469  0.11652990     0.11100
H1252       H  0.44236796  0.12837863  0.12164677     0.13000
H1253       H  0.43448054  0.16570475  0.08728720     0.09500
H1254       H  0.43608405  0.21689994  0.06429855     0.11600
H1255       H  0.47336918  0.23325954  0.09902517     0.08200
H1256       H  0.47175357  0.18186250  0.12195072     0.10900
C1257       C  0.44320395  0.89150319  0.27661112    -0.03700
C1258       C  0.43386515  0.90878005  0.29063051    -0.06300
C1259       C  0.43143322  0.90150849  0.31660890    -0.21400
C1260       C  0.43820929  0.87673169  0.32911246     0.24400
C1261       C  0.44740249  0.85900205  0.31494062    -0.18900
C1262       C  0.44981414  0.86622781  0.28891120    -0.08900
C1263       C  0.43625106  0.87193392  0.35737691    -0.19200
C1264       C  0.43898507  0.84414129  0.36960789    -0.24000
C1265       C  0.43881418  0.84008642  0.39825011     0.26400
C1266       C  0.43925468  0.80878278  0.40836827    -0.20700
C1267       C  0.44092914  0.80360671  0.43490559    -0.10400
C1268       C  0.44224451  0.82970183  0.45197420    -0.10900
C1269       C  0.44116873  0.86108472  0.44210384    -0.03800
C1270       C  0.43953133  0.86628326  0.41549809    -0.19000
H1271       H  0.42861030  0.92841134  0.28168034     0.10100
H1272       H  0.42438531  0.91566494  0.32711353     0.10200
H1273       H  0.45314710  0.84043242  0.32407780     0.09900
H1274       H  0.45719701  0.85280999  0.27871025     0.11000
H1275       H  0.43240636  0.89207830  0.36825836     0.11100
H1276       H  0.44166889  0.82326442  0.35820068     0.13000
H1277       H  0.43874605  0.78818602  0.39557130     0.09500
H1278       H  0.44167777  0.77911082  0.44190420     0.11600
H1279       H  0.44222517  0.88167397  0.45475439     0.08200
H1280       H  0.43951676  0.89081763  0.40857953     0.10900
C1281       C  0.29133890  0.71306363  0.15705525    -0.03700
C1282       C  0.30336859  0.69869641  0.15217173    -0.06300
C1283       C  0.30412032  0.66902210  0.13962443    -0.21400
C1284       C  0.29288278  0.65292046  0.13205019     0.24400
C1285       C  0.28086945  0.66797570  0.13584520    -0.18900
C1286       C  0.28011791  0.69775397  0.14824395    -0.08900
C1287       C  0.29406812  0.62078786  0.11985613    -0.19200
C1288       C  0.28472318  0.59841940  0.12123851    -0.24000
C1289       C  0.28535035  0.56642730  0.10840499     0.26400
C1290       C  0.27560684  0.54401386  0.11380336    -0.20700
C1291       C  0.27507335  0.51476846  0.10054084    -0.10400
C1292       C  0.28427106  0.50735577  0.08147323    -0.10900
C1293       C  0.29430087  0.52916941  0.07674613    -0.03800
C1294       C  0.29483499  0.55839576  0.08996021    -0.19000
H1295       H  0.31219554  0.71003373  0.15856159     0.10100
H1296       H  0.31349608  0.65817960  0.13648265     0.10200
H1297       H  0.27203601  0.65689077  0.12929148     0.09900
H1298       H  0.27071373  0.70834075  0.15156615     0.11000
H1299       H  0.30317307  0.61528818  0.11061006     0.11100
H1300       H  0.27612938  0.60361552  0.13249681     0.13000
H1301       H  0.26816721  0.54949898  0.12786397     0.09500
H1302       H  0.26717878  0.49851860  0.10455125     0.11600
H1303       H  0.30152829  0.52416062  0.06214559     0.08200
H1304       H  0.30244471  0.57480689  0.08476462     0.10900
C1305       C  0.23299668  0.09081799  0.24973136    -0.03700
C1306       C  0.22955864  0.07723268  0.22579487    -0.06300
C1307       C  0.23493897  0.04809299  0.21799308    -0.21400
C1308       C  0.24355022  0.03188166  0.23431692     0.24400
C1309       C  0.24793061  0.04691641  0.25706596    -0.18900
C1310       C  0.24273221  0.07644374  0.26464129    -0.08900
C1311       C  0.24701339  0.99841768  0.22816506    -0.19200
C1312       C  0.24737338  0.97554944  0.24658737    -0.24000
C1313       C  0.25082095  0.94194917  0.24067014     0.26400
C1314       C  0.25835087  0.92486460  0.25853993    -0.20700
C1315       C  0.26387199  0.89557895  0.25152056    -0.10400
C1316       C  0.26162690  0.88270908  0.22679546    -0.10900
C1317       C  0.25287302  0.89788285  0.21007249    -0.03800
C1318       C  0.24752456  0.92751281  0.21692036    -0.19000
H1319       H  0.22203447  0.08800106  0.21404491     0.10100
H1320       H  0.23160895  0.03700826  0.20021251     0.10200
H1321       H  0.25488488  0.03513999  0.26955756     0.09900
H1322       H  0.24544003  0.08644365  0.28324265     0.11000
H1323       H  0.24847192  0.99219293  0.20792713     0.11100
H1324       H  0.24588769  0.98201692  0.26678807     0.13000
H1325       H  0.26078094  0.93533467  0.27713525     0.09500
H1326       H  0.27058467  0.88403376  0.26469497     0.11600
H1327       H  0.25106266  0.88829705  0.19089026     0.08200
H1328       H  0.24130485  0.93971690  0.20319812     0.10900
C1329       C  0.27841168  0.86110012  0.12810598    -0.03700
C1330       C  0.28278976  0.89255440  0.12341744    -0.06300
C1331       C  0.27814936  0.91038022  0.10228454    -0.21400
C1332       C  0.26886226  0.89752906  0.08542954     0.24400
C1333       C  0.26493834  0.86545071  0.08931426    -0.18900
C1334       C  0.26965983  0.84749008  0.11040125    -0.08900
C1335       C  0.26337069  0.91868025  0.06459324    -0.19200
C1336       C  0.25148111  0.91468999  0.05436530    -0.24000
C1337       C  0.24503558  0.93764821  0.03597336     0.26400
C1338       C  0.23166105  0.93492361  0.03230841    -0.20700
C1339       C  0.22500280  0.95583891  0.01571340    -0.10400
C1340       C  0.23151966  0.98018333  0.00212714    -0.10900
C1341       C  0.24494037  0.98288351  0.00551635    -0.03800
C1342       C  0.25164002  0.96182606  0.02214798    -0.19000
H1343       H  0.28955862  0.90381460  0.13653395     0.10100
H1344       H  0.28149515  0.93481033  0.09965975     0.10200
H1345       H  0.25814511  0.85417922  0.07629342     0.09900
H1346       H  0.26612583  0.82328236  0.11330886     0.11000
H1347       H  0.26888975  0.93981452  0.05941587     0.11100
H1348       H  0.24569105  0.89472167  0.06118241     0.13000
H1349       H  0.22627348  0.91659029  0.04252043     0.09500
H1350       H  0.21468996  0.95292470  0.01358713     0.11600
H1351       H  0.25029650  0.00111772  0.99512482     0.08200
H1352       H  0.26196414  0.96447668  0.02379996     0.10900
C1353       C  0.30784702  0.83412829  0.27971252    -0.03700
C1354       C  0.31439987  0.86313308  0.28403090    -0.06300
C1355       C  0.31692108  0.87355268  0.30927146    -0.21400
C1356       C  0.31296589  0.85523977  0.33070156     0.24400
C1357       C  0.30650325  0.82601527  0.32633799    -0.18900
C1358       C  0.30405588  0.81551178  0.30110788    -0.08900
C1359       C  0.31465377  0.86878444  0.35711380    -0.19200
C1360       C  0.31417138  0.85095089  0.37891449    -0.24000
C1361       C  0.31360276  0.86486548  0.40542130     0.26400
C1362       C  0.31580797  0.84458568  0.42676654    -0.20700
C1363       C  0.31380660  0.85560382  0.45204755    -0.10400
C1364       C  0.30949977  0.88717714  0.45648278    -0.10900
C1365       C  0.30770950  0.90781932  0.43520299    -0.03800
C1366       C  0.30967302  0.89680424  0.40995851    -0.19000
H1367       H  0.31743209  0.87800196  0.26790438     0.10100
H1368       H  0.32179126  0.89628847  0.31207589     0.10200
H1369       H  0.30286280  0.81170586  0.34222898     0.09900
H1370       H  0.29882515  0.79327408  0.29837579     0.11000
H1371       H  0.31618962  0.89450857  0.35843325     0.11100
H1372       H  0.31389203  0.82494164  0.37746121     0.13000
H1373       H  0.31874343  0.81983324  0.42384306     0.09500
H1374       H  0.31524429  0.83908464  0.46805019     0.11600
H1375       H  0.30430509  0.93222089  0.43796709     0.08200
H1376       H  0.30748866  0.91306754  0.39419371     0.10900
C1377       C  0.33324860  0.82327101  0.18444946    -0.03700
C1378       C  0.34311340  0.80302714  0.19366543    -0.06300
C1379       C  0.35610144  0.81144813  0.19049878    -0.21400
C1380       C  0.35958562  0.84047325  0.17836599     0.24400
C1381       C  0.34971858  0.86008198  0.16817967    -0.18900
C1382       C  0.33674104  0.85158586  0.17122263    -0.08900
C1383       C  0.37354571  0.84933177  0.17690964    -0.19200
C1384       C  0.37790846  0.87974427  0.17370812    -0.24000
C1385       C  0.39184950  0.88892634  0.17465407     0.26400
C1386       C  0.39517136  0.92096206  0.18032257    -0.20700
C1387       C  0.40810925  0.93010665  0.18327521    -0.10400
C1388       C  0.41804957  0.90737774  0.18050453    -0.10900
C1389       C  0.41475835  0.87576397  0.17336397    -0.03800
C1390       C  0.40186158  0.86666330  0.17036412    -0.19000
H1391       H  0.34079808  0.78107793  0.20394958     0.10100
H1392       H  0.36346419  0.79561221  0.19827522     0.10200
H1393       H  0.35192212  0.88207168  0.15792518     0.09900
H1394       H  0.32941349  0.86776683  0.16380723     0.11000
H1395       H  0.38042786  0.83016683  0.18056334     0.11100
H1396       H  0.37099942  0.89928544  0.17226615     0.13000
H1397       H  0.38769681  0.93879250  0.18339942     0.09500
H1398       H  0.41028558  0.95457100  0.18887386     0.11600
H1399       H  0.42218022  0.85766982  0.17078878     0.08200
H1400       H  0.39983298  0.84209259  0.16494325     0.10900
C1401       C  0.47479782  0.87863328  0.12872033    -0.03700
C1402       C  0.46742938  0.85423090  0.11716531    -0.06300
C1403       C  0.47218956  0.83707023  0.09581684    -0.21400
C1404       C  0.48447025  0.84358607  0.08562001     0.24400
C1405       C  0.49164238  0.86887124  0.09655620    -0.18900
C1406       C  0.48687630  0.88606376  0.11786310    -0.08900
C1407       C  0.48939151  0.82347704  0.06370739    -0.19200
C1408       C  0.50205647  0.81925897  0.05853497    -0.24000
C1409       C  0.50741188  0.79782573  0.03782931     0.26400
C1410       C  0.49995290  0.77539330  0.02389517    -0.20700
C1411       C  0.50572864  0.75485911  0.00566142    -0.10400
C1412       C  0.51905148  0.75626957  0.00083881    -0.10900
C1413       C  0.52643362  0.77893594  0.01446032    -0.03800
C1414       C  0.52070205  0.79927231  0.03273289    -0.19000
H1415       H  0.45811392  0.84778699  0.12503197     0.10100
H1416       H  0.46638248  0.81799039  0.08766939     0.10200
H1417       H  0.50093413  0.87557372  0.08878708     0.09900
H1418       H  0.49279758  0.90481674  0.12616260     0.11000
H1419       H  0.48225074  0.81077671  0.05238014     0.11100
H1420       H  0.50906543  0.83158823  0.07050896     0.13000
H1421       H  0.48973099  0.77295448  0.02721738     0.09500
H1422       H  0.49976118  0.73774391  0.99542020     0.11600
H1423       H  0.53672477  0.78069459  0.01128320     0.08200
H1424       H  0.52673974  0.81612993  0.04309854     0.10900
C1425       C  0.48928764  0.39232267  0.01514916    -0.03700
C1426       C  0.48866373  0.40115711  0.98895028    -0.06300
C1427       C  0.49328094  0.43113079  0.98094593    -0.21400
C1428       C  0.49834892  0.45276884  0.99913667     0.24400
C1429       C  0.50008294  0.44249582  0.02491769    -0.18900
C1430       C  0.49547095  0.41258083  0.03286787    -0.08900
C1431       C  0.50104294  0.48627706  0.99094980    -0.19200
C1432       C  0.50013090  0.51146782  0.00726518    -0.24000
C1433       C  0.50299124  0.54477446  0.99907737     0.26400
C1434       C  0.50945965  0.56505590  0.01638685    -0.20700
C1435       C  0.51403939  0.59482021  0.00802298    -0.10400
C1436       C  0.51182632  0.60512031  0.98248791    -0.10900
C1437       C  0.50423311  0.58632150  0.96595127    -0.03800
C1438       C  0.49990670  0.55616046  0.97412555    -0.19000
H1439       H  0.48354684  0.38622049  0.97519232     0.10100
H1440       H  0.49200245  0.43836261  0.96091722     0.10200
H1441       H  0.50444884  0.45800501  0.03924303     0.09900
H1442       H  0.49576725  0.40637322  0.05327941     0.11000
H1443       H  0.50329407  0.49043129  0.97065177     0.11100
H1444       H  0.49789076  0.50760964  0.02758295     0.13000
H1445       H  0.51176483  0.55690849  0.03581215     0.09500
H1446       H  0.52001895  0.60890254  0.02093335     0.11600
H1447       H  0.50261518  0.59367129  0.94604246     0.08200
H1448       H  0.49457227  0.54134571  0.96065959     0.10900
C1449       C  0.47486229  0.50175005  0.76015937    -0.03700
C1450       C  0.46835412  0.52766956  0.77182837    -0.06300
C1451       C  0.47471733  0.54788707  0.78937516    -0.21400
C1452       C  0.48773396  0.54274987  0.79583439     0.24400
C1453       C  0.49423496  0.51671958  0.78412854    -0.18900
C1454       C  0.48785683  0.49645367  0.76666837    -0.08900
C1455       C  0.49416928  0.56553836  0.81421384    -0.19200
C1456       C  0.50553542  0.55954608  0.82614011    -0.24000
C1457       C  0.51182808  0.58153786  0.84522776     0.26400
C1458       C  0.52114449  0.56859583  0.86206922    -0.20700
C1459       C  0.52705113  0.58765759  0.88095162    -0.10400
C1460       C  0.52389372  0.62039712  0.88341912    -0.10900
C1461       C  0.51495209  0.63379860  0.86589135    -0.03800
C1462       C  0.50899154  0.61463238  0.84698086    -0.19000
H1463       H  0.45834343  0.53250145  0.76727202     0.10100
H1464       H  0.46943146  0.56772405  0.79791074     0.10200
H1465       H  0.50431700  0.51209822  0.78781071     0.09900
H1466       H  0.49319654  0.47686105  0.75793825     0.11000
H1467       H  0.48900155  0.58751647  0.81880442     0.11100
H1468       H  0.51023662  0.53656908  0.82311381     0.13000
H1469       H  0.52365751  0.54333275  0.86104845     0.09500
H1470       H  0.53386453  0.57645921  0.89409069     0.11600
H1471       H  0.51230270  0.65894685  0.86720832     0.08200
H1472       H  0.50218836  0.62588065  0.83389587     0.10900
C1473       C  0.66540702  0.57982515  0.92904995    -0.03700
C1474       C  0.65549180  0.55865564  0.93620474    -0.06300
C1475       C  0.64260897  0.56627239  0.93086279    -0.21400
C1476       C  0.63934180  0.59531790  0.91853989     0.24400
C1477       C  0.64930990  0.61557201  0.90997853    -0.18900
C1478       C  0.66218468  0.60791610  0.91522405    -0.08900
C1479       C  0.62548470  0.60416766  0.91591725    -0.19200
C1480       C  0.62129003  0.63490969  0.91535143    -0.24000
C1481       C  0.60745214  0.64406228  0.91741602     0.26400
C1482       C  0.60427676  0.67373851  0.92869763    -0.20700
C1483       C  0.59142489  0.68199520  0.93345807    -0.10400
C1484       C  0.58142118  0.66086236  0.92675643    -0.10900
C1485       C  0.58454473  0.63203414  0.91394856    -0.03800
C1486       C  0.59742621  0.62370054  0.90930183    -0.19000
H1487       H  0.65763682  0.53679439  0.94680782     0.10100
H1488       H  0.63513064  0.55004056  0.93738581     0.10200
H1489       H  0.64721804  0.63757698  0.89956813     0.09900
H1490       H  0.66959283  0.62463454  0.90921292     0.11000
H1491       H  0.61851594  0.58484808  0.91743835     0.11100
H1492       H  0.62825818  0.65427558  0.91638589     0.13000
H1493       H  0.61179832  0.69004897  0.93485788     0.09500
H1494       H  0.58936456  0.70444636  0.94325204     0.11600
H1495       H  0.57706057  0.61533399  0.90834584     0.08200
H1496       H  0.59948331  0.60114234  0.89971973     0.10900
C1497       C  0.77530914  0.36937011  0.12929765    -0.03700
C1498       C  0.78219323  0.39617294  0.12014553    -0.06300
C1499       C  0.77759029  0.41420992  0.09909001    -0.21400
C1500       C  0.76596640  0.40607567  0.08680563     0.24400
C1501       C  0.75951604  0.37805069  0.09492828    -0.18900
C1502       C  0.76410159  0.36005480  0.11598454    -0.08900
C1503       C  0.76077031  0.42763155  0.06604533    -0.19200
C1504       C  0.74808335  0.42973732  0.06040375    -0.24000
C1505       C  0.74225318  0.45188837  0.04078267     0.26400
C1506       C  0.72951503  0.44605547  0.03295584    -0.20700
C1507       C  0.72329924  0.46638698  0.01532815    -0.10400
C1508       C  0.72961780  0.49339657  0.00506377    -0.10900
C1509       C  0.74236988  0.49949490  0.01290725    -0.03800
C1510       C  0.74863674  0.47899375  0.03058660    -0.19000
H1511       H  0.79088878  0.40398035  0.12986552     0.10100
H1512       H  0.78288140  0.43532729  0.09301556     0.10200
H1513       H  0.75085443  0.37000140  0.08528615     0.09900
H1514       H  0.75865225  0.33929918  0.12227653     0.11000
H1515       H  0.76757168  0.44309862  0.05613107     0.11100
H1516       H  0.74139119  0.41455671  0.07091224     0.13000
H1517       H  0.72430333  0.42555988  0.04053870     0.09500
H1518       H  0.71348123  0.46091374  0.00979889     0.11600
H1519       H  0.74749448  0.52017774  0.00545270     0.08200
H1520       H  0.75833842  0.48491297  0.03647670     0.10900
C1521       C  0.51316121  0.64549844  0.25173584    -0.03700
C1522       C  0.51488569  0.65748543  0.22653544    -0.06300
C1523       C  0.51092888  0.68863702  0.22027739    -0.21400
C1524       C  0.50556447  0.70864071  0.23931305     0.24400
C1525       C  0.50300417  0.69590108  0.26406442    -0.18900
C1526       C  0.50670606  0.66439146  0.27016179    -0.08900
C1527       C  0.50311094  0.74277429  0.23275248    -0.19200
C1528       C  0.50443336  0.76698112  0.24990654    -0.24000
C1529       C  0.50206256  0.80101317  0.24260866     0.26400
C1530       C  0.49659014  0.82203704  0.26085517    -0.20700
C1531       C  0.49194448  0.85217864  0.25306035    -0.10400
C1532       C  0.49298917  0.86175383  0.22707750    -0.10900
C1533       C  0.49973451  0.84228680  0.20955475    -0.03800
C1534       C  0.50433025  0.81221346  0.21726827    -0.19000
H1535       H  0.52002592  0.64343523  0.21217084     0.10100
H1536       H  0.51282378  0.69782804  0.20098385     0.10200
H1537       H  0.49851169  0.71049896  0.27890285     0.09900
H1538       H  0.50551897  0.65579838  0.28985895     0.11000
H1539       H  0.50073079  0.74811890  0.21269982     0.11100
H1540       H  0.50670144  0.76169434  0.27002557     0.13000
H1541       H  0.49493062  0.81409969  0.28058476     0.09500
H1542       H  0.48644348  0.86655699  0.26665385     0.11600
H1543       H  0.50039535  0.84909052  0.18930025     0.08200
H1544       H  0.50902478  0.79715350  0.20299758     0.10900
C1545       C  0.48224660  0.73648152  0.47998997    -0.03700
C1546       C  0.47497660  0.71405733  0.46586342    -0.06300
C1547       C  0.48090278  0.69411534  0.44750618    -0.21400
C1548       C  0.49421294  0.69612401  0.44275974     0.24400
C1549       C  0.50154166  0.71800473  0.45741137    -0.18900
C1550       C  0.49560626  0.73805760  0.47565825    -0.08900
C1551       C  0.50005772  0.67474155  0.42270809    -0.19200
C1552       C  0.51139582  0.68082042  0.41083318    -0.24000
C1553       C  0.51690474  0.66042988  0.38978284     0.26400
C1554       C  0.52583293  0.67412986  0.37254727    -0.20700
C1555       C  0.53087863  0.65628779  0.35188314    -0.10400
C1556       C  0.52723307  0.62412030  0.34817360    -0.10900
C1557       C  0.51868467  0.61000085  0.36601640    -0.03800
C1558       C  0.51358972  0.62788752  0.38658994    -0.19000
H1559       H  0.46466980  0.71217590  0.46876561     0.10100
H1560       H  0.47502294  0.67730199  0.43672193     0.10200
H1561       H  0.51187684  0.71957880  0.45513880     0.09900
H1562       H  0.50151431  0.75471840  0.48650426     0.11000
H1563       H  0.49436423  0.65432864  0.41647472     0.11100
H1564       H  0.51653047  0.70276645  0.41538434     0.13000
H1565       H  0.52867954  0.69901701  0.37469648     0.09500
H1566       H  0.53742720  0.66791089  0.33849941     0.11600
H1567       H  0.51567934  0.58525328  0.36376093     0.08200
H1568       H  0.50709430  0.61603884  0.39989843     0.10900
C1569       C  0.46835714  0.37148764  0.11148758    -0.03700
C1570       C  0.46182321  0.39874940  0.12084927    -0.06300
C1571       C  0.46677787  0.41611938  0.14188556    -0.21400
C1572       C  0.47838493  0.40674290  0.15379725     0.24400
C1573       C  0.48435729  0.37808601  0.14565032    -0.18900
C1574       C  0.47943088  0.36078970  0.12470198    -0.08900
C1575       C  0.48419299  0.42773024  0.17406054    -0.19200
C1576       C  0.49704201  0.42917709  0.17816360    -0.24000
C1577       C  0.50359355  0.45101041  0.19692571     0.26400
C1578       C  0.51687432  0.44671966  0.20109805    -0.20700
C1579       C  0.52367581  0.46692017  0.21782578    -0.10400
C1580       C  0.51738381  0.49217449  0.23075384    -0.10900
C1581       C  0.50409572  0.49658897  0.22666934    -0.03800
C1582       C  0.49725881  0.47627001  0.20997176    -0.19000
H1583       H  0.45325992  0.40758083  0.11113728     0.10100
H1584       H  0.46185295  0.43778454  0.14808186     0.10200
H1585       H  0.49296346  0.36914734  0.15509924     0.09900
H1586       H  0.48459465  0.33958842  0.11825947     0.11000
H1587       H  0.47771666  0.44343299  0.18460365     0.11100
H1588       H  0.50331678  0.41395070  0.16663344     0.13000
H1589       H  0.52205344  0.42762084  0.19130204     0.09500
H1590       H  0.53390491  0.46283328  0.22049987     0.11600
H1591       H  0.49895891  0.51580684  0.23638242     0.08200
H1592       H  0.48711070  0.48093539  0.20721175     0.10900
C1593       C  0.55855234  0.65892024  0.02799784    -0.03700
C1594       C  0.55742389  0.68248269  0.04734228    -0.06300
C1595       C  0.55917196  0.67448675  0.07339688    -0.21400
C1596       C  0.56209828  0.64280277  0.08083898     0.24400
C1597       C  0.56371007  0.61940132  0.06132756    -0.18900
C1598       C  0.56193627  0.62743380  0.03521413    -0.08900
C1599       C  0.56260078  0.63542219  0.10911052    -0.19200
C1600       C  0.56502140  0.60616621  0.11932220    -0.24000
C1601       C  0.56366221  0.59911424  0.14744580     0.26400
C1602       C  0.56050693  0.56771979  0.15505513    -0.20700
C1603       C  0.55812878  0.56051589  0.18107510    -0.10400
C1604       C  0.55898496  0.58455457  0.20012806    -0.10900
C1605       C  0.56271920  0.61567136  0.19269976    -0.03800
C1606       C  0.56508807  0.62288354  0.16664590    -0.19000
H1607       H  0.55481093  0.70698658  0.04244970     0.10100
H1608       H  0.55789919  0.69306966  0.08787899     0.10200
H1609       H  0.56600355  0.59469919  0.06583984     0.09900
H1610       H  0.56286443  0.60873641  0.02073217     0.11000
H1611       H  0.56004283  0.65495014  0.12206950     0.11100
H1612       H  0.56706400  0.58591026  0.10681656     0.13000
H1613       H  0.55947286  0.54889859  0.14070603     0.09500
H1614       H  0.55533805  0.53624392  0.18616950     0.11600
H1615       H  0.56359250  0.63462973  0.20696023     0.08200
H1616       H  0.56798768  0.64707811  0.16170217     0.10900
C1617       C  0.68771943  0.58386338  0.03125779    -0.03700
C1618       C  0.68929781  0.55993708  0.05028881    -0.06300
C1619       C  0.68726237  0.56688355  0.07643520    -0.21400
C1620       C  0.68369017  0.59791667  0.08430718     0.24400
C1621       C  0.68154493  0.62159714  0.06519031    -0.18900
C1622       C  0.68358977  0.61462538  0.03893011    -0.08900
C1623       C  0.68268794  0.60442792  0.11261179    -0.19200
C1624       C  0.68415127  0.63385530  0.12313284    -0.24000
C1625       C  0.68520844  0.64028915  0.15152913     0.26400
C1626       C  0.68582021  0.67243811  0.15974318    -0.20700
C1627       C  0.68813449  0.68000244  0.18572344    -0.10400
C1628       C  0.68981825  0.65553588  0.20422843    -0.10900
C1629       C  0.68877093  0.62337010  0.19632587    -0.03800
C1630       C  0.68655438  0.61575788  0.17028522    -0.19000
H1631       H  0.69245996  0.53596169  0.04508387     0.10100
H1632       H  0.68889099  0.54811541  0.09067314     0.10200
H1633       H  0.67835603  0.64552210  0.07032602     0.09900
H1634       H  0.68219978  0.63350387  0.02470583     0.11000
H1635       H  0.68164347  0.58361225  0.12505744     0.11100
H1636       H  0.68538160  0.65438072  0.11037807     0.13000
H1637       H  0.68483154  0.69187392  0.14586161     0.09500
H1638       H  0.68885627  0.70505271  0.19122941     0.11600
H1639       H  0.69014962  0.60399583  0.21011933     0.08200
H1640       H  0.68636357  0.59062666  0.16514065     0.10900
C1641       C  0.66661239  0.66339625  0.30312973    -0.03700
C1642       C  0.65684513  0.68459945  0.29495585    -0.06300
C1643       C  0.64385552  0.67683570  0.29867954    -0.21400
C1644       C  0.64036200  0.64756764  0.31028361     0.24400
C1645       C  0.65012517  0.62720683  0.31977757    -0.18900
C1646       C  0.66309631  0.63504794  0.31623038    -0.08900
C1647       C  0.62651216  0.63860755  0.31148158    -0.19200
C1648       C  0.62246574  0.60784157  0.31033438    -0.24000
C1649       C  0.60867228  0.59874641  0.30797648     0.26400
C1650       C  0.60550188  0.57022315  0.29494909    -0.20700
C1651       C  0.59262190  0.56201393  0.29057778    -0.10400
C1652       C  0.58262328  0.58203167  0.29942422    -0.10900
C1653       C  0.58579623  0.60969886  0.31371518    -0.03800
C1654       C  0.59867930  0.61797750  0.31797076    -0.19000
H1655       H  0.65921821  0.70662038  0.28482304     0.10100
H1656       H  0.63651042  0.69311897  0.29147397     0.10200
H1657       H  0.64778745  0.60499229  0.32962993     0.09900
H1658       H  0.67036955  0.61824141  0.32291753     0.11000
H1659       H  0.61949003  0.65797579  0.31061713     0.11100
H1660       H  0.62953119  0.58868294  0.30847981     0.13000
H1661       H  0.61302247  0.55482289  0.28729098     0.09500
H1662       H  0.59051627  0.54056193  0.27949538     0.11600
H1663       H  0.57832081  0.62553709  0.32096452     0.08200
H1664       H  0.60076489  0.63955614  0.32886419     0.10900
C1665       C  0.72218510  0.62121582  0.35322137    -0.03700
C1666       C  0.72824334  0.63911664  0.37283652    -0.06300
C1667       C  0.73424730  0.62380185  0.39375397    -0.21400
C1668       C  0.73434925  0.59016114  0.39583547     0.24400
C1669       C  0.72785531  0.57213031  0.37671239    -0.18900
C1670       C  0.72180971  0.58754662  0.35568353    -0.08900
C1671       C  0.74207833  0.57525936  0.41722007    -0.19200
C1672       C  0.74094870  0.54446931  0.42508290    -0.24000
C1673       C  0.74895678  0.52958092  0.44603305     0.26400
C1674       C  0.74441996  0.50148280  0.45793019    -0.20700
C1675       C  0.75170337  0.48574467  0.47689529    -0.10400
C1676       C  0.76385797  0.49744775  0.48441879    -0.10900
C1677       C  0.76848274  0.52558585  0.47256042    -0.03800
C1678       C  0.76111887  0.54153022  0.45356805    -0.19000
H1679       H  0.72874854  0.66507766  0.37159174     0.10100
H1680       H  0.73913209  0.63837516  0.40808548     0.10200
H1681       H  0.72786672  0.54614617  0.37717510     0.09900
H1682       H  0.71737736  0.57302499  0.34073894     0.11000
H1683       H  0.74880135  0.59081918  0.42726161     0.11100
H1684       H  0.73352726  0.52953253  0.41654108     0.13000
H1685       H  0.73517056  0.49153573  0.45247208     0.09500
H1686       H  0.74782593  0.46404377  0.48546100     0.11600
H1687       H  0.77782566  0.53512545  0.47779728     0.08200
H1688       H  0.76515568  0.56263382  0.44445311     0.10900
C1689       C  0.73542630  0.59528541  0.25490285    -0.03700
C1690       C  0.73333015  0.58390443  0.22965634    -0.06300
C1691       C  0.73723284  0.55296474  0.22275890    -0.21400
C1692       C  0.74290921  0.53264222  0.24123406     0.24400
C1693       C  0.74593594  0.54490835  0.26590002    -0.18900
C1694       C  0.74227918  0.57619764  0.27262781    -0.08900
C1695       C  0.74501992  0.49853090  0.23442186    -0.19200
C1696       C  0.74356636  0.47437973  0.25160205    -0.24000
C1697       C  0.74566057  0.44037154  0.24426163     0.26400
C1698       C  0.75158636  0.41948370  0.26204294    -0.20700
C1699       C  0.75619847  0.38956611  0.25384304    -0.10400
C1700       C  0.75468574  0.38011721  0.22794498    -0.10900
C1701       C  0.74738750  0.39927318  0.21105866    -0.03800
C1702       C  0.74283248  0.42919357  0.21917555    -0.19000
H1703       H  0.72792381  0.59821142  0.21581474     0.10100
H1704       H  0.73499960  0.54412298  0.20352695     0.10200
H1705       H  0.75069822  0.53002507  0.28024963     0.09900
H1706       H  0.74380061  0.58440418  0.29231862     0.11000
H1707       H  0.74717015  0.49315244  0.21427734     0.11100
H1708       H  0.74150352  0.47969434  0.27179098     0.13000
H1709       H  0.75369551  0.42747124  0.28156739     0.09500
H1710       H  0.76214147  0.37544873  0.26689981     0.11600
H1711       H  0.74638118  0.39259732  0.19085201     0.08200
H1712       H  0.73781756  0.44430172  0.20533394     0.10900
C1713       C  0.53572432  0.27264937  0.40944789    -0.03700
C1714       C  0.52409753  0.28436338  0.39906425    -0.06300
C1715       C  0.52374200  0.31366090  0.38580902    -0.21400
C1716       C  0.53494295  0.33209755  0.38280651     0.24400
C1717       C  0.54669706  0.31978729  0.39230181    -0.18900
C1718       C  0.54706051  0.29039843  0.40552176    -0.08900
C1719       C  0.53390119  0.36368616  0.36940634    -0.19200
C1720       C  0.54255987  0.38755507  0.37193892    -0.24000
C1721       C  0.54139444  0.41868323  0.35798183     0.26400
C1722       C  0.55266038  0.43530200  0.35136476    -0.20700
C1723       C  0.55201930  0.46363972  0.33683449    -0.10400
C1724       C  0.54005090  0.47624997  0.32895884    -0.10900
C1725       C  0.52872743  0.46056722  0.33678608    -0.03800
C1726       C  0.52937933  0.43204186  0.35114326    -0.19000
H1727       H  0.51519033  0.27126451  0.40170105     0.10100
H1728       H  0.51459373  0.32234142  0.37840615     0.10200
H1729       H  0.55564511  0.33258578  0.38959158     0.09900
H1730       H  0.55618294  0.28195393  0.41319105     0.11000
H1731       H  0.52549168  0.36744875  0.35722328     0.11100
H1732       H  0.55107167  0.38405596  0.38384011     0.13000
H1733       H  0.56202038  0.42576293  0.35673550     0.09500
H1734       H  0.56092090  0.47528782  0.33127857     0.11600
H1735       H  0.51936363  0.46981174  0.33117276     0.08200
H1736       H  0.52047282  0.42053665  0.35677315     0.10900
C1737       C  0.51637291  0.25470972  0.51004990    -0.03700
C1738       C  0.52357957  0.27618341  0.52522072    -0.06300
C1739       C  0.51754256  0.29560023  0.54383760    -0.21400
C1740       C  0.50413718  0.29425066  0.54779404     0.24400
C1741       C  0.49690888  0.27284197  0.53241753    -0.18900
C1742       C  0.50297234  0.25323270  0.51394461    -0.08900
C1743       C  0.49823059  0.31593669  0.56778553    -0.19200
C1744       C  0.48592397  0.31400681  0.57628941    -0.24000
C1745       C  0.48038602  0.33495541  0.59708545     0.26400
C1746       C  0.46971338  0.32376994  0.61119441    -0.20700
C1747       C  0.46446821  0.34190330  0.63151025    -0.10400
C1748       C  0.46962249  0.37205359  0.63800841    -0.10900
C1749       C  0.47997890  0.38391818  0.62322696    -0.03800
C1750       C  0.48531276  0.36561348  0.60302494    -0.19000
H1751       H  0.53392549  0.27786532  0.52282227     0.10100
H1752       H  0.52340882  0.31178981  0.55524393     0.10200
H1753       H  0.48656290  0.27120932  0.53418172     0.09900
H1754       H  0.49711519  0.23712330  0.50245778     0.11000
H1755       H  0.50456333  0.33352759  0.57659524     0.11100
H1756       H  0.47972983  0.29514077  0.56902451     0.13000
H1757       H  0.46559586  0.30047478  0.60689951     0.09500
H1758       H  0.45648505  0.33203702  0.64241961     0.11600
H1759       H  0.48418842  0.40705292  0.62769140     0.08200
H1760       H  0.49324905  0.37564516  0.59213453     0.10900
C1761       C  0.52147589  0.12356052  0.38887467    -0.03700
C1762       C  0.52615099  0.09251527  0.38347450    -0.06300
C1763       C  0.52111643  0.07457327  0.36284362    -0.21400
C1764       C  0.51109439  0.08681849  0.34733328     0.24400
C1765       C  0.50655337  0.11814670  0.35237355    -0.18900
C1766       C  0.51171356  0.13629890  0.37284543    -0.08900
C1767       C  0.50585681  0.06633131  0.32595267    -0.19200
C1768       C  0.49370878  0.06869996  0.31661226    -0.24000
C1769       C  0.48826847  0.04655852  0.29652553     0.26400
C1770       C  0.47487877  0.04151157  0.29565794    -0.20700
C1771       C  0.46940184  0.02074393  0.27729090    -0.10400
C1772       C  0.47716570  0.00490081  0.25894233    -0.10900
C1773       C  0.49054515  0.01045679  0.25944966    -0.03800
C1774       C  0.49603576  0.03092599  0.27800557    -0.19000
H1775       H  0.53363421  0.08188853  0.39539426     0.10100
H1776       H  0.52489594  0.05066752  0.35932826     0.10200
H1777       H  0.49908183  0.12880174  0.34047874     0.09900
H1778       H  0.50784788  0.16008516  0.37647494     0.11000
H1779       H  0.51200350  0.04700417  0.31904039     0.11100
H1780       H  0.48716412  0.08607700  0.32521102     0.13000
H1781       H  0.46862399  0.05344969  0.30945617     0.09500
H1782       H  0.45905956  0.01735323  0.27729541     0.11600
H1783       H  0.49681238  0.99891986  0.24546208     0.08200
H1784       H  0.50633287  0.03483844  0.27746372     0.10900
C1785       C  0.50833512  0.10490557  0.48623314    -0.03700
C1786       C  0.49803397  0.09492639  0.47056555    -0.06300
C1787       C  0.49302369  0.06397694  0.47337486    -0.21400
C1788       C  0.49831085  0.04281467  0.49173271     0.24400
C1789       C  0.50742295  0.05431515  0.50955561    -0.18900
C1790       C  0.51241078  0.08516957  0.50678987    -0.08900
C1791       C  0.49491751  0.00842189  0.49062215    -0.19200
C1792       C  0.50362622  0.98508440  0.49550276    -0.24000
C1793       C  0.50028821  0.95066340  0.49427517     0.26400
C1794       C  0.50570815  0.92942517  0.51241263    -0.20700
C1795       C  0.50086395  0.89828503  0.51498595    -0.10400
C1796       C  0.49059288  0.88814191  0.49929549    -0.10900
C1797       C  0.48637595  0.90805302  0.47894898    -0.03800
C1798       C  0.49118835  0.93912600  0.47644334    -0.19000
H1799       H  0.49473375  0.10970839  0.45456376     0.10100
H1800       H  0.48577733  0.05570318  0.45982481     0.10200
H1801       H  0.51120110  0.03894600  0.52473273     0.09900
H1802       H  0.52020637  0.09259128  0.51939991     0.11000
H1803       H  0.48526182  0.00224849  0.48422628     0.11100
H1804       H  0.51328390  0.99127900  0.50187897     0.13000
H1805       H  0.51295093  0.93772895  0.52595999     0.09500
H1806       H  0.50428116  0.88341608  0.53083537     0.11600
H1807       H  0.47859588  0.90057733  0.46632233     0.08200
H1808       H  0.48730827  0.95457329  0.46142150     0.10900
C1809       C  0.71120167  0.76853973  0.32884409    -0.03700
C1810       C  0.72291786  0.78049621  0.33843948    -0.06300
C1811       C  0.72325872  0.80945613  0.35214672    -0.21400
C1812       C  0.71194034  0.82724597  0.35641077     0.24400
C1813       C  0.70012659  0.81457420  0.34779432    -0.18900
C1814       C  0.69978331  0.78559781  0.33409188    -0.08900
C1815       C  0.71292021  0.85876596  0.36986127    -0.19200
C1816       C  0.70409495  0.88246631  0.36749006    -0.24000
C1817       C  0.70533679  0.91429627  0.38031638     0.26400
C1818       C  0.71737155  0.92754553  0.38682941    -0.20700
C1819       C  0.71809535  0.95734559  0.39923829    -0.10400
C1820       C  0.70683275  0.97456774  0.40541281    -0.10900
C1821       C  0.69484246  0.96179568  0.39816801    -0.03800
C1822       C  0.69412610  0.93209724  0.38557381    -0.19000
H1823       H  0.73188520  0.76790512  0.33480111     0.10100
H1824       H  0.73246469  0.81843551  0.35884584     0.10200
H1825       H  0.69111547  0.82681182  0.35154225     0.09900
H1826       H  0.69057998  0.77686367  0.32719545     0.11000
H1827       H  0.72147440  0.86275354  0.38151173     0.11100
H1828       H  0.69549555  0.87859180  0.35597781     0.13000
H1829       H  0.72626295  0.91516525  0.38226832     0.09500
H1830       H  0.72748660  0.96652412  0.40455925     0.11600
H1831       H  0.68598839  0.97447019  0.40265330     0.08200
H1832       H  0.68475192  0.92263588  0.38045481     0.10900
C1833       C  0.57852264  0.15809400  0.43405528    -0.03700
C1834       C  0.58066536  0.13066265  0.41866790    -0.06300
C1835       C  0.59315997  0.11890082  0.41455719    -0.21400
C1836       C  0.60387563  0.13435156  0.42545561     0.24400
C1837       C  0.60181161  0.16267625  0.43987630    -0.18900
C1838       C  0.58928042  0.17440677  0.44408160    -0.08900
C1839       C  0.61681625  0.11863973  0.42344698    -0.19200
C1840       C  0.62804471  0.13472002  0.42523668    -0.24000
C1841       C  0.64099624  0.11891706  0.42541538     0.26400
C1842       C  0.65175396  0.13700343  0.41787339    -0.20700
C1843       C  0.66424286  0.12469416  0.42065456    -0.10400
C1844       C  0.66636454  0.09406903  0.43153510    -0.10900
C1845       C  0.65557727  0.07536622  0.43821243    -0.03800
C1846       C  0.64302249  0.08759488  0.43511854    -0.19000
H1847       H  0.57262692  0.11741193  0.41066071     0.10100
H1848       H  0.59443002  0.09706830  0.40340289     0.10200
H1849       H  0.60976586  0.17492691  0.44909815     0.09900
H1850       H  0.58798779  0.19532580  0.45629427     0.11000
H1851       H  0.61704318  0.09288610  0.42004405     0.11100
H1852       H  0.62783081  0.16078931  0.42622683     0.13000
H1853       H  0.65051114  0.16118496  0.41042923     0.09500
H1854       H  0.67228068  0.13992064  0.41540241     0.11600
H1855       H  0.65684779  0.05182457  0.44685353     0.08200
H1856       H  0.63499812  0.07312184  0.44162034     0.10900
C1857       C  0.72392995  0.12393186  0.38401716    -0.03700
C1858       C  0.72710472  0.10776519  0.36098602    -0.06300
C1859       C  0.73312715  0.12407654  0.34051492    -0.21400
C1860       C  0.73644661  0.15670458  0.34277853     0.24400
C1861       C  0.73304237  0.17309783  0.36565709    -0.18900
C1862       C  0.72680293  0.15690956  0.38596352    -0.08900
C1863       C  0.74315859  0.17278931  0.32065648    -0.19200
C1864       C  0.75102340  0.19845031  0.32325702    -0.24000
C1865       C  0.75799266  0.21386258  0.30109309     0.26400
C1866       C  0.76913385  0.23203555  0.30606845    -0.20700
C1867       C  0.77574800  0.24748011  0.28586738    -0.10400
C1868       C  0.77123075  0.24560592  0.26020571    -0.10900
C1869       C  0.76005833  0.22758955  0.25522186    -0.03800
C1870       C  0.75353532  0.21186432  0.27534496    -0.19000
H1871       H  0.72503927  0.08239299  0.35889301     0.10100
H1872       H  0.73548427  0.11091749  0.32302945     0.10200
H1873       H  0.73511004  0.19842483  0.36790764     0.09900
H1874       H  0.72457622  0.17001057  0.40354903     0.11000
H1875       H  0.74215844  0.16165391  0.30175499     0.11100
H1876       H  0.75296648  0.20770618  0.34253679     0.13000
H1877       H  0.77273534  0.23432457  0.32570131     0.09500
H1878       H  0.78422118  0.26154115  0.29042595     0.11600
H1879       H  0.75626479  0.22587581  0.23570623     0.08200
H1880       H  0.74481599  0.19895201  0.27066954     0.10900
C1881       C  0.73787930  0.13919723  0.48093556    -0.03700
C1882       C  0.74797993  0.14990655  0.46506128    -0.06300
C1883       C  0.75362415  0.17981997  0.46966694    -0.21400
C1884       C  0.74915128  0.19919797  0.49001886     0.24400
C1885       C  0.74019188  0.18665242  0.50769956    -0.18900
C1886       C  0.73456892  0.15687853  0.50312902    -0.08900
C1887       C  0.75318495  0.23311632  0.49126953    -0.19200
C1888       C  0.74500971  0.25658660  0.49869253    -0.24000
C1889       C  0.74891132  0.29059602  0.49989547     0.26400
C1890       C  0.74402497  0.31010500  0.51978013    -0.20700
C1891       C  0.74923067  0.34056116  0.52410407    -0.10400
C1892       C  0.75930394  0.35175266  0.50839385    -0.10900
C1893       C  0.76309104  0.33370430  0.48667977    -0.03800
C1894       C  0.75792646  0.30333527  0.48243076    -0.19000
H1895       H  0.75065749  0.13669661  0.44778920     0.10100
H1896       H  0.76073075  0.18889541  0.45614122     0.10200
H1897       H  0.73703432  0.20050376  0.52429193     0.09900
H1898       H  0.72692509  0.14880620  0.51586086     0.11000
H1899       H  0.76282583  0.23899254  0.48461683     0.11100
H1900       H  0.73536214  0.25063913  0.50526978     0.13000
H1901       H  0.73686080  0.30087328  0.53310682     0.09500
H1902       H  0.74616474  0.35403982  0.54097492     0.11600
H1903       H  0.77070584  0.34211199  0.47401788     0.08200
H1904       H  0.76139867  0.28936871  0.46616057     0.10900
C1905       C  0.53671922  0.97818645  0.83260307    -0.03700
C1906       C  0.52538649  0.96754314  0.84472506    -0.06300
C1907       C  0.52526408  0.93853300  0.85830373    -0.21400
C1908       C  0.53638268  0.91940787  0.85966121     0.24400
C1909       C  0.54790654  0.93077989  0.84868617    -0.18900
C1910       C  0.54806646  0.95997550  0.83529687    -0.08900
C1911       C  0.53549433  0.88755947  0.87224837    -0.19200
C1912       C  0.54267640  0.86219167  0.86487989    -0.24000
C1913       C  0.54118009  0.82992897  0.87658848     0.26400
C1914       C  0.55188941  0.80935202  0.87771874    -0.20700
C1915       C  0.55101533  0.77967699  0.89028002    -0.10400
C1916       C  0.53931969  0.76985885  0.90144258    -0.10900
C1917       C  0.52839599  0.78955227  0.89885791    -0.03800
C1918       C  0.52930676  0.81934441  0.88656617    -0.19000
H1919       H  0.51651541  0.98119137  0.84311778     0.10100
H1920       H  0.51632474  0.93039869  0.86692277     0.10200
H1921       H  0.55676448  0.91711387  0.85020980     0.09900
H1922       H  0.55696219  0.96769566  0.82627601     0.11000
H1923       H  0.52819384  0.88465335  0.88714103     0.11100
H1924       H  0.55002663  0.86506072  0.85007764     0.13000
H1925       H  0.56107018  0.81678418  0.86973830     0.09500
H1926       H  0.55956942  0.76481532  0.89190850     0.11600
H1927       H  0.51926663  0.78255774  0.90730175     0.08200
H1928       H  0.52071731  0.83403592  0.88507815     0.10900
C1929       C  0.50746771  0.14143521  0.75285937    -0.03700
C1930       C  0.51060701  0.15683166  0.72948310    -0.06300
C1931       C  0.50550152  0.18705401  0.72382317    -0.21400
C1932       C  0.49748276  0.20249567  0.74176384     0.24400
C1933       C  0.49327219  0.18565732  0.76384848    -0.18900
C1934       C  0.49819809  0.15511729  0.76927900    -0.08900
C1935       C  0.49447933  0.23680541  0.73780345    -0.19200
C1936       C  0.49367665  0.25767155  0.75762496    -0.24000
C1937       C  0.49074668  0.29190088  0.75318845     0.26400
C1938       C  0.48171775  0.30707565  0.76920102    -0.20700
C1939       C  0.47674071  0.33702921  0.76226070    -0.10400
C1940       C  0.48098931  0.35239949  0.73955389    -0.10900
C1941       C  0.49117474  0.33900414  0.72533151    -0.03800
C1942       C  0.49598578  0.30872823  0.73201703    -0.19000
H1943       H  0.51777760  0.14660064  0.71661901     0.10100
H1944       H  0.50865357  0.19945165  0.70646209     0.10200
H1945       H  0.48669092  0.19665279  0.77751732     0.09900
H1946       H  0.49573413  0.14368852  0.78750666     0.11000
H1947       H  0.49373467  0.24549110  0.71796777     0.11100
H1948       H  0.49436515  0.24925042  0.77752887     0.13000
H1949       H  0.47774361  0.29463450  0.78584243     0.09500
H1950       H  0.46890380  0.34710068  0.77354171     0.11600
H1951       H  0.49455891  0.35044901  0.70772735     0.08200
H1952       H  0.50329200  0.29777856  0.71989194     0.10900
C1953       C  0.51833140  0.12287268  0.85185008    -0.03700
C1954       C  0.50877262  0.10747563  0.86666456    -0.06300
C1955       C  0.50190227  0.12426536  0.88573157    -0.21400
C1956       C  0.50451694  0.15674352  0.89086160     0.24400
C1957       C  0.51438228  0.17194885  0.87666908    -0.18900
C1958       C  0.52117527  0.15521659  0.85735122    -0.08900
C1959       C  0.49624132  0.17429171  0.90993683    -0.19200
C1960       C  0.50011961  0.20053596  0.92309429    -0.24000
C1961       C  0.49194044  0.21759588  0.94253902     0.26400
C1962       C  0.49801143  0.23319170  0.96327386    -0.20700
C1963       C  0.49081961  0.25014232  0.98168108    -0.10400
C1964       C  0.47732613  0.25259359  0.97959883    -0.10900
C1965       C  0.47119848  0.23733985  0.95863518    -0.03800
C1966       C  0.47842189  0.21983682  0.94035363    -0.19000
H1967       H  0.50622664  0.08268319  0.86286278     0.10100
H1968       H  0.49435756  0.11193352  0.89625931     0.10200
H1969       H  0.51653238  0.19711515  0.87962903     0.09900
H1970       H  0.52838655  0.16790243  0.84618284     0.11000
H1971       H  0.48680990  0.16430799  0.91410610     0.11100
H1972       H  0.50996534  0.20879844  0.92084685     0.13000
H1973       H  0.50839260  0.23209175  0.96534564     0.09500
H1974       H  0.49589504  0.26171947  0.99745087     0.11600
H1975       H  0.46083638  0.23887005  0.95641056     0.08200
H1976       H  0.47345141  0.20871239  0.92426194     0.10900
C1977       C  0.55725450  0.09343278  0.70894625    -0.03700
C1978       C  0.55968011  0.06898173  0.69080364    -0.06300
C1979       C  0.56237799  0.07653212  0.66498544    -0.21400
C1980       C  0.56259542  0.10863008  0.65659508     0.24400
C1981       C  0.56081680  0.13321522  0.67507177    -0.18900
C1982       C  0.55813987  0.12563756  0.70095697    -0.08900
C1983       C  0.56418612  0.11502099  0.62834964    -0.19200
C1984       C  0.56057319  0.14270618  0.61682916    -0.24000
C1985       C  0.56031538  0.14778926  0.58827884     0.26400
C1986       C  0.55950354  0.12226916  0.57038917    -0.20700
C1987       C  0.55761866  0.12849177  0.54394951    -0.10400
C1988       C  0.55642175  0.16024482  0.53491659    -0.10900
C1989       C  0.55771334  0.18564029  0.55267535    -0.03800
C1990       C  0.55959993  0.17945094  0.57900218    -0.19000
H1991       H  0.55918563  0.04390660  0.69640240     0.10100
H1992       H  0.56385790  0.05711864  0.65131523     0.29400
H1993       H  0.56136828  0.15831334  0.66978271     0.09900
H1994       H  0.55641120  0.14500619  0.71454858     0.11000
H1995       H  0.56771535  0.09534047  0.61652247     0.11100
H1996       H  0.55709949  0.16251026  0.62855087     0.13000
H1997       H  0.55967168  0.09748676  0.57671966     0.09500
H1998       H  0.55654257  0.10842784  0.53077316     0.11600
H1999       H  0.55685422  0.21040771  0.54637075     0.08200
H2000       H  0.56014485  0.19954035  0.59230478     0.10900
C2001       C  0.51838555  0.99230765  0.73062077    -0.03700
C2002       C  0.52576326  0.96753876  0.71942450    -0.06300
C2003       C  0.52039435  0.94704682  0.70078087    -0.21400
C2004       C  0.50753471  0.95077251  0.69267580     0.24400
C2005       C  0.50008000  0.97528500  0.70420203    -0.18900
C2006       C  0.50546073  0.99581571  0.72282809    -0.08900
C2007       C  0.50230654  0.92827537  0.67259959    -0.19200
C2008       C  0.49157159  0.93404934  0.65844621    -0.24000
C2009       C  0.48668239  0.91249815  0.63743173     0.26400
C2010       C  0.47833048  0.92554082  0.61869606    -0.20700
C2011       C  0.47364504  0.90670145  0.59831507    -0.10400
C2012       C  0.47706639  0.87406900  0.59621484    -0.10900
C2013       C  0.48515250  0.86066684  0.61533091    -0.03800
C2014       C  0.48989820  0.87960783  0.63572459    -0.19000
H2015       H  0.53572809  0.96399516  0.72501997     0.10100
H2016       H  0.52637097  0.92829469  0.69249637     0.10200
H2017       H  0.49003746  0.97856100  0.69928226     0.09900
H2018       H  0.49944854  0.01439107  0.73123788     0.11000
H2019       H  0.50798263  0.90694717  0.66846257     0.11100
H2020       H  0.48645455  0.95656482  0.66110031     0.13000
H2021       H  0.47557686  0.95066327  0.61956007     0.09500
H2022       H  0.46745665  0.91789421  0.58397194     0.11600
H2023       H  0.48797155  0.83560795  0.61433881     0.08200
H2024       H  0.49599133  0.86828450  0.65011170     0.10900
C2025       C  0.70712573  0.26984491  0.82960733    -0.03700
C2026       C  0.69538241  0.28150333  0.83940812    -0.06300
C2027       C  0.69489032  0.31073934  0.85267548    -0.21400
C2028       C  0.70605723  0.32920026  0.85603089     0.24400
C2029       C  0.71791091  0.31695012  0.84712595    -0.18900
C2030       C  0.71842634  0.28753136  0.83407323    -0.08900
C2031       C  0.70493013  0.36088016  0.86906504    -0.19200
C2032       C  0.71308799  0.38547488  0.86475989    -0.24000
C2033       C  0.71184326  0.41715768  0.87780376     0.26400
C2034       C  0.72290779  0.43599590  0.88124400    -0.20700
C2035       C  0.72226940  0.46503265  0.89483769    -0.10400
C2036       C  0.71048824  0.47599807  0.90499683    -0.10900
C2037       C  0.69928582  0.45799187  0.90030993    -0.03800
C2038       C  0.69993727  0.42893390  0.88682098    -0.19000
H2039       H  0.68652286  0.26833706  0.83637624     0.10100
H2040       H  0.68567550  0.31943053  0.85968573     0.10200
H2041       H  0.72679721  0.32991850  0.85018579     0.09900
H2042       H  0.72762915  0.27911107  0.82680429     0.11000
H2043       H  0.69684248  0.36409869  0.88214840     0.11100
H2044       H  0.72119876  0.38224196  0.85173123     0.13000
H2045       H  0.73215811  0.42771168  0.87411403     0.09500
H2046       H  0.73106062  0.47841983  0.89800270     0.11600
H2047       H  0.69003004  0.46591736  0.90765352     0.08200
H2048       H  0.69109784  0.41583053  0.88359230     0.10900
C2049       C  0.68690626  0.15696735  0.70483110    -0.03700
C2050       C  0.68584390  0.12495559  0.69651868    -0.06300
C2051       C  0.68390858  0.11790044  0.67029729    -0.21400
C2052       C  0.68307974  0.14280508  0.65178118     0.24400
C2053       C  0.68342473  0.17477722  0.66038981    -0.18900
C2054       C  0.68537641  0.18181469  0.68657483    -0.08900
C2055       C  0.68226047  0.13672667  0.62337627    -0.19200
C2056       C  0.68584475  0.10880403  0.61227774    -0.24000
C2057       C  0.68630660  0.10345676  0.58382753     0.26400
C2058       C  0.68594739  0.07172784  0.57472144    -0.20700
C2059       C  0.68762859  0.06505414  0.54843517    -0.10400
C2060       C  0.68978736  0.09002147  0.53060155    -0.10900
C2061       C  0.68982687  0.12193261  0.53951992    -0.03800
C2062       C  0.68815160  0.12863143  0.56591025    -0.19000
H2063       H  0.68689470  0.10529452  0.71015587     0.10100
H2064       H  0.68317872  0.09291945  0.66479290     0.10200
H2065       H  0.68263605  0.19443809  0.64667151     0.09900
H2066       H  0.68603828  0.20676386  0.69240085     0.11000
H2067       H  0.67920430  0.15660309  0.61116041     0.11100
H2068       H  0.68887867  0.08878601  0.62430598     0.13000
H2069       H  0.68460879  0.05191201  0.58810782     0.09500
H2070       H  0.68755106  0.04021415  0.54217709     0.11600
H2071       H  0.69166194  0.14163226  0.52626791     0.08200
H2072       H  0.68887324  0.15333453  0.57223578     0.10900
C2073       C  0.66520819  0.15627556  0.80675873    -0.03700
C2074       C  0.66311340  0.12739403  0.82034330    -0.06300
C2075       C  0.65061585  0.11639577  0.82507690    -0.21400
C2076       C  0.63986059  0.13408938  0.81669040     0.24400
C2077       C  0.64190693  0.16386921  0.80428747    -0.18900
C2078       C  0.65445510  0.17482151  0.79939330    -0.08900
C2079       C  0.62686820  0.11904968  0.81875885    -0.19200
C2080       C  0.61569421  0.13563648  0.81814181    -0.24000
C2081       C  0.60277916  0.12001907  0.81705787     0.26400
C2082       C  0.59191565  0.13746635  0.82519823    -0.20700
C2083       C  0.57948828  0.12522878  0.82161395    -0.10400
C2084       C  0.57759877  0.09535205  0.80942914    -0.10900
C2085       C  0.58849097  0.07730954  0.80214929    -0.03800
C2086       C  0.60093511  0.08947119  0.80589655    -0.19000
H2087       H  0.67114808  0.11241599  0.82629738     0.10100
H2088       H  0.64935181  0.09339196  0.83460797     0.10200
H2089       H  0.63389924  0.17796166  0.79704453     0.09900
H2090       H  0.65571927  0.19703870  0.78873562     0.11000
H2091       H  0.62656697  0.09308528  0.82084515     0.11100
H2092       H  0.61592820  0.16171980  0.81848632     0.13000
H2093       H  0.59303029  0.16109078  0.83370957     0.09500
H2094       H  0.57133262  0.13992921  0.82729448     0.11600
H2095       H  0.58739397  0.05441764  0.79243349     0.08200
H2096       H  0.60901242  0.07558068  0.79874850     0.10900
C2097       C  0.77461940  0.37063359  0.60514458    -0.03700
C2098       C  0.77895284  0.33900690  0.60932202    -0.06300
C2099       C  0.77388797  0.32049093  0.62957064    -0.21400
C2100       C  0.76424299  0.33290376  0.64588966     0.24400
C2101       C  0.76031937  0.36507535  0.64242109    -0.18900
C2102       C  0.76544946  0.38366607  0.62227503    -0.08900
C2103       C  0.75853776  0.31143825  0.66604489    -0.19200
C2104       C  0.74675930  0.31605169  0.67662990    -0.24000
C2105       C  0.74045860  0.29373023  0.69552599     0.26400
C2106       C  0.72752462  0.29942772  0.70234243    -0.20700
C2107       C  0.72107429  0.27913462  0.71968581    -0.10400
C2108       C  0.72740855  0.25253957  0.73072988    -0.10900
C2109       C  0.74036579  0.24689239  0.72412075    -0.03800
C2110       C  0.74683253  0.26722427  0.70685557    -0.19000
H2111       H  0.78603483  0.32827538  0.59654385     0.10100
H2112       H  0.77724241  0.29596812  0.63198221     0.10200
H2113       H  0.75327308  0.37605084  0.65508314     0.09900
H2114       H  0.76191552  0.40798319  0.61963147     0.11000
H2115       H  0.76402305  0.29005180  0.67086264     0.11100
H2116       H  0.74106618  0.33655073  0.67033342     0.13000
H2117       H  0.72233989  0.31967112  0.69412167     0.09500
H2118       H  0.71111731  0.28431096  0.72444564     0.11600
H2119       H  0.74557625  0.22676922  0.73243400     0.08200
H2120       H  0.75682199  0.26193574  0.70278668     0.10900
C2121       C  0.20258019  0.46060277  0.40333043    -0.03700
C2122       C  0.19032829  0.44893890  0.39656993    -0.06300
C2123       C  0.18904185  0.41925243  0.38418677    -0.21400
C2124       C  0.19993224  0.40038852  0.37880076     0.24400
C2125       C  0.21222718  0.41266620  0.38447219    -0.18900
C2126       C  0.21353075  0.44252054  0.39657476    -0.08900
C2127       C  0.19817645  0.36815125  0.36713107    -0.19200
C2128       C  0.20609767  0.34326557  0.37245283    -0.24000
C2129       C  0.20491877  0.31101445  0.36034663     0.26400
C2130       C  0.21584953  0.29108205  0.35965920    -0.20700
C2131       C  0.21558478  0.26184031  0.34638863    -0.10400
C2132       C  0.20430485  0.25173506  0.33378274    -0.10900
C2133       C  0.19310066  0.27058977  0.33598226    -0.03800
C2134       C  0.19338634  0.29994280  0.34913580    -0.19000
H2135       H  0.18171059  0.46243168  0.40135441     0.10100
H2136       H  0.17948785  0.41049950  0.37959093     0.10200
H2137       H  0.22084641  0.39923027  0.37965810     0.09900
H2138       H  0.22310123  0.45095326  0.40137519     0.11000
H2139       H  0.18997673  0.36498687  0.35436926     0.11100
H2140       H  0.21415562  0.34693543  0.38554761     0.13000
H2141       H  0.22478745  0.29874636  0.36854093     0.09500
H2142       H  0.22434116  0.24767245  0.34526778     0.11600
H2143       H  0.18422576  0.26329627  0.32666465     0.08200
H2144       H  0.18459571  0.31388979  0.35015260     0.10900
C2145       C  0.22541051  0.48216714  0.50132817    -0.03700
C2146       C  0.21842555  0.45861531  0.51486944    -0.06300
C2147       C  0.22443659  0.43919071  0.53350702    -0.21400
C2148       C  0.23762065  0.44251832  0.53917486     0.24400
C2149       C  0.24464379  0.46624806  0.52570429    -0.18900
C2150       C  0.23859670  0.48578369  0.50702341    -0.08900
C2151       C  0.24333760  0.42111639  0.55961651    -0.19200
C2152       C  0.25605781  0.41805322  0.56493326    -0.24000
C2153       C  0.26128833  0.39663518  0.58586642     0.26400
C2154       C  0.25444779  0.36996445  0.59551651    -0.20700
C2155       C  0.25943432  0.35142957  0.61591649    -0.10400
C2156       C  0.27142676  0.35879739  0.62715620    -0.10900
C2157       C  0.27852422  0.38452952  0.61676919    -0.03800
C2158       C  0.27353395  0.40307993  0.59631273    -0.19000
H2159       H  0.20825759  0.45514515  0.51109449     0.10100
H2160       H  0.21871507  0.42133394  0.54354085     0.10200
H2161       H  0.25474050  0.47023808  0.52958819     0.09900
H2162       H  0.24426209  0.50378979  0.49704988     0.11000
H2163       H  0.23652888  0.40729513  0.57099269     0.11100
H2164       H  0.26298905  0.43231374  0.55426830     0.13000
H2165       H  0.24523270  0.36319264  0.58746232     0.09500
H2166       H  0.25371166  0.33170437  0.62330350     0.11600
H2167       H  0.28776824  0.39098236  0.62496686     0.08200
H2168       H  0.27912192  0.42314977  0.58910646     0.10900
C2169       C  0.22156066  0.60595384  0.37548074    -0.03700
C2170       C  0.22937078  0.58880308  0.35795677    -0.06300
C2171       C  0.23641341  0.60491033  0.33867442    -0.21400
C2172       C  0.23582884  0.63857490  0.33619852     0.24400
C2173       C  0.22775368  0.65568436  0.35334345    -0.18900
C2174       C  0.22070802  0.63957160  0.37261805    -0.08900
C2175       C  0.24432104  0.65492286  0.31663669    -0.19200
C2176       C  0.24231085  0.68507040  0.30757544    -0.24000
C2177       C  0.25075353  0.70184025  0.28823315     0.26400
C2178       C  0.24554284  0.72764696  0.27404788    -0.20700
C2179       C  0.25307396  0.74502252  0.25640511    -0.10400
C2180       C  0.26615341  0.73738424  0.25254134    -0.10900
C2181       C  0.27145004  0.71160437  0.26678989    -0.03800
C2182       C  0.26385577  0.69401967  0.28442132    -0.19000
H2183       H  0.23039626  0.56297267  0.35968155     0.10100
H2184       H  0.24255810  0.59099121  0.32591106     0.10200
H2185       H  0.22720944  0.68162539  0.35272901     0.09900
H2186       H  0.21498761  0.65369587  0.38600380     0.11000
H2187       H  0.25231281  0.64104197  0.30888691     0.11100
H2188       H  0.23372358  0.69792996  0.31368520     0.13000
H2189       H  0.23553666  0.73445513  0.27661228     0.09500
H2190       H  0.24862354  0.76466524  0.24586700     0.11600
H2191       H  0.28149838  0.70513479  0.26444297     0.08200
H2192       H  0.26836009  0.67486172  0.29539000     0.10900
C2193       C  0.23472214  0.62777901  0.47281761    -0.03700
C2194       C  0.24542639  0.63693277  0.45797223    -0.06300
C2195       C  0.25198542  0.66530858  0.46384496    -0.21400
C2196       C  0.24784878  0.68475429  0.48446024     0.24400
C2197       C  0.23796221  0.67382726  0.50079247    -0.18900
C2198       C  0.23140873  0.64563184  0.49491217    -0.08900
C2199       C  0.25347421  0.71703879  0.48765708    -0.19200
C2200       C  0.24639603  0.74234415  0.49570416    -0.24000
C2201       C  0.25178565  0.77499977  0.49835814     0.26400
C2202       C  0.24669252  0.79575993  0.51721621    -0.20700
C2203       C  0.25258904  0.82527400  0.52223293    -0.10400
C2204       C  0.26360916  0.83433164  0.50829487    -0.10900
C2205       C  0.26797209  0.81482095  0.48789742    -0.03800
C2206       C  0.26208134  0.78548212  0.48287028    -0.19000
H2207       H  0.24807751  0.62359094  0.44074680     0.10100
H2208       H  0.25973800  0.67314153  0.45128302     0.10200
H2209       H  0.23496116  0.68762105  0.51752576     0.09900
H2210       H  0.22326955  0.63870825  0.50682028     0.11000
H2211       H  0.26346139  0.72020907  0.48197172     0.11100
H2212       H  0.23639643  0.73896968  0.50127790     0.13000
H2213       H  0.23858328  0.78837254  0.52901295     0.09500
H2214       H  0.24906080  0.83992587  0.53808039     0.11600
H2215       H  0.27632905  0.82158803  0.47656776     0.08200
H2216       H  0.26581869  0.77079922  0.46727262     0.10900
C2217       C  0.03461327  0.76604133  0.40413182    -0.03700
C2218       C  0.04640410  0.78136883  0.39909426    -0.06300
C2219       C  0.04672196  0.81083624  0.38601564    -0.21400
C2220       C  0.03528104  0.82597220  0.37800351     0.24400
C2221       C  0.02349155  0.81012254  0.38221142    -0.18900
C2222       C  0.02317834  0.78047729  0.39513028    -0.08900
C2223       C  0.03613623  0.85806348  0.36525985    -0.19200
C2224       C  0.02650902  0.87997159  0.36530535    -0.24000
C2225       C  0.02758641  0.91248715  0.35327064     0.26400
C2226       C  0.01627710  0.92881926  0.34600173    -0.20700
C2227       C  0.01687262  0.95891644  0.33385290    -0.10400
C2228       C  0.02882398  0.97347316  0.32880160    -0.10900
C2229       C  0.04012128  0.95777307  0.33705764    -0.03800
C2230       C  0.03952298  0.92773949  0.34926656    -0.19000
H2231       H  0.05539414  0.77088155  0.40567954     0.10100
H2232       H  0.05594605  0.82228796  0.38275082     0.10200
H2233       H  0.01449634  0.82040865  0.37554947     0.09900
H2234       H  0.01393706  0.76923189  0.39860172     0.11000
H2235       H  0.04527033  0.86402930  0.35625809     0.11100
H2236       H  0.01736041  0.87395527  0.37424299     0.13000
H2237       H  0.00694380  0.91787129  0.34913726     0.09500
H2238       H  0.00798527  0.97027804  0.32764594     0.11600
H2239       H  0.04947396  0.96845548  0.33366358     0.08200
H2240       H  0.04844821  0.91671102  0.35551868     0.10900
C2241       C  0.07789654  0.65789937  0.43279485    -0.03700
C2242       C  0.08771528  0.67823181  0.44182056    -0.06300
C2243       C  0.10071839  0.67059723  0.43744273    -0.21400
C2244       C  0.10422277  0.64231574  0.42424411     0.24400
C2245       C  0.09438098  0.62274879  0.41421124    -0.18900
C2246       C  0.08141022  0.63042893  0.41847507    -0.08900
C2247       C  0.11817005  0.63380048  0.42167828    -0.19200
C2248       C  0.12249133  0.60325081  0.41927157    -0.24000
C2249       C  0.13640594  0.59408997  0.42009185     0.26400
C2250       C  0.13979829  0.56350163  0.42949238    -0.20700
C2251       C  0.15274469  0.55476871  0.43264438    -0.10400
C2252       C  0.16265745  0.57623585  0.42601634    -0.10900
C2253       C  0.15928416  0.60612796  0.41507924    -0.03800
C2254       C  0.14630165  0.61502219  0.41220689    -0.19000
H2255       H  0.08537251  0.69955312  0.45291212     0.10100
H2256       H  0.10808157  0.68632324  0.44514661     0.10200
H2257       H  0.09662687  0.60137785  0.40315227     0.09900
H2258       H  0.07411922  0.61429596  0.41105395     0.11000
H2259       H  0.12509600  0.65304520  0.42420531     0.11100
H2260       H  0.11558674  0.58371033  0.41925714     0.13000
H2261       H  0.13239139  0.54671403  0.43539641     0.09500
H2262       H  0.15498389  0.53152512  0.44103655     0.11600
H2263       H  0.16667578  0.62321511  0.40972044     0.08200
H2264       H  0.14406361  0.63838473  0.40409583     0.10900
C2265       C  0.02338215  0.61424413  0.37921127    -0.03700
C2266       C  0.02486819  0.58061680  0.37914228    -0.06300
C2267       C  0.01914993  0.56185837  0.35985494    -0.21400
C2268       C  0.01194938  0.57610111  0.33984756     0.24400
C2269       C  0.01089946  0.60987993  0.33915436    -0.18900
C2270       C  0.01652569  0.62872383  0.35869874    -0.08900
C2271       C  0.00480607  0.55470077  0.32166310    -0.19200
C2272       C  0.00095932  0.56323141  0.29763388    -0.24000
C2273       C  0.99355599  0.54110995  0.28046485     0.26400
C2274       C  0.99532211  0.54261882  0.25350535    -0.20700
C2275       C  0.98852567  0.52201133  0.23696414    -0.10400
C2276       C  0.97954054  0.49996455  0.24697671    -0.10900
C2277       C  0.97751376  0.49903293  0.27390440    -0.03800
C2278       C  0.98449287  0.51922104  0.29048551    -0.19000
H2279       H  0.02995328  0.56853920  0.39471581     0.10100
H2280       H  0.02008297  0.53593683  0.36096486     0.10200
H2281       H  0.00522377  0.62172543  0.32433866     0.09900
H2282       H  0.01506356  0.65451490  0.35830934     0.11000
H2283       H  0.00294268  0.53032012  0.32823710     0.11100
H2284       H  0.00381602  0.58637117  0.28977381     0.13000
H2285       H  0.00212622  0.55948087  0.24524622     0.09500
H2286       H  0.99022784  0.52351210  0.21627608     0.11600
H2287       H  0.97063449  0.48240380  0.28219178     0.08200
H2288       H  0.98262599  0.51801545  0.31110622     0.10900
C2289       C  0.99055851  0.37904160  0.50694968    -0.03700
C2290       C  0.98891317  0.38487876  0.48034271    -0.06300
C2291       C  0.99304247  0.41395322  0.46952584    -0.21400
C2292       C  0.99862901  0.43742593  0.48540487     0.24400
C2293       C  0.00169567  0.42973438  0.51124240    -0.18900
C2294       C  0.99758663  0.40079047  0.52198373    -0.08900
C2295       C  0.99994179  0.47076994  0.47583296    -0.19200
C2296       C  0.99679933  0.49574880  0.49119202    -0.24000
C2297       C  0.99914321  0.52960832  0.48416106     0.26400
C2298       C  0.00300561  0.55069820  0.50384639    -0.20700
C2299       C  0.00730163  0.58147388  0.49770803    -0.10400
C2300       C  0.00733773  0.59194513  0.47189640    -0.10900
C2301       C  0.00230000  0.57205665  0.45244011    -0.03800
C2302       C  0.99831266  0.54084786  0.45849280    -0.19000
H2303       H  0.98318786  0.36866323  0.46865713     0.10100
H2304       H  0.99075820  0.41931119  0.44947690     0.10200
H2305       H  0.00642014  0.44707314  0.52364449     0.09900
H2306       H  0.99870851  0.39689364  0.54264752     0.11000
H2307       H  0.00316974  0.47467340  0.45605425     0.11100
H2308       H  0.99340960  0.49113166  0.51078255     0.13000
H2309       H  0.00357831  0.54255979  0.52378119     0.09500
H2310       H  0.01133734  0.59639866  0.51286250     0.11600
H2311       H  0.00249611  0.57962867  0.43232577     0.08200
H2312       H  0.99504188  0.52526440  0.44305123     0.10900
C2313       C  0.21020929  0.75987649  0.82397844    -0.03700
C2314       C  0.22212589  0.77018394  0.83387025    -0.06300
C2315       C  0.22308756  0.79929975  0.84725952    -0.21400
C2316       C  0.21220729  0.81890695  0.85093397     0.24400
C2317       C  0.20016736  0.80788419  0.84201532    -0.18900
C2318       C  0.19921049  0.77878784  0.82860298    -0.08900
C2319       C  0.21384710  0.85037604  0.86430685    -0.19200
C2320       C  0.20526312  0.87469110  0.86268422    -0.24000
C2321       C  0.20674346  0.90561668  0.87670229     0.26400
C2322       C  0.19558474  0.92218706  0.88426815    -0.20700
C2323       C  0.19644126  0.95078279  0.89827621    -0.10400
C2324       C  0.20851196  0.96378756  0.90472031    -0.10900
C2325       C  0.21972215  0.94794490  0.89619915    -0.03800
C2326       C  0.21885649  0.91905907  0.88235391    -0.19000
H2327       H  0.23078977  0.75614494  0.83072850     0.10100
H2328       H  0.23244081  0.80690010  0.85423266     0.10200
H2329       H  0.19142403  0.82142539  0.84529895     0.09900
H2330       H  0.18986595  0.77141157  0.82143522     0.11000
H2331       H  0.22254521  0.85363416  0.87567881     0.11100
H2332       H  0.19651007  0.87176166  0.85150724     0.13000
H2333       H  0.18615003  0.91251622  0.87991058     0.09500
H2334       H  0.18761161  0.96240136  0.90447472     0.11600
H2335       H  0.22915758  0.95741736  0.90079880     0.08200
H2336       H  0.22765488  0.90741696  0.87607420     0.10900
C2337       C  0.18681549  0.64374031  0.70154888    -0.03700
C2338       C  0.18432661  0.61120144  0.69633428    -0.06300
C2339       C  0.18266529  0.60056051  0.67088683    -0.21400
C2340       C  0.18340101  0.62207547  0.64992376     0.24400
C2341       C  0.18533709  0.65499413  0.65525896    -0.18900
C2342       C  0.18705366  0.66562085  0.68078816    -0.08900
C2343       C  0.18271542  0.60851198  0.62314625    -0.19200
C2344       C  0.18406620  0.62576904  0.60113799    -0.24000
C2345       C  0.18470486  0.61154218  0.57460772     0.26400
C2346       C  0.18671014  0.57846823  0.57005772    -0.20700
C2347       C  0.18818215  0.56684850  0.54477983    -0.10400
C2348       C  0.18776793  0.58790034  0.52346250    -0.10900
C2349       C  0.18557589  0.62077200  0.52794176    -0.03800
C2350       C  0.18408483  0.63239583  0.55318662    -0.19000
H2351       H  0.18412536  0.59364502  0.71186151     0.10100
H2352       H  0.18115295  0.57513430  0.66754411     0.10200
H2353       H  0.18585569  0.67275734  0.64002324     0.09900
H2354       H  0.18891376  0.69087157  0.68420320     0.11000
H2355       H  0.18132800  0.58275639  0.62182200     0.11100
H2356       H  0.18495977  0.65165495  0.60220083     0.13000
H2357       H  0.18759355  0.56142312  0.58577101     0.09500
H2358       H  0.18997846  0.54141372  0.54199492     0.11600
H2359       H  0.18531307  0.63769711  0.51197366     0.08200
H2360       H  0.18265601  0.65797041  0.55600507     0.10900
C2361       C  0.25173154  0.37037472  0.72484963    -0.03700
C2362       C  0.25315388  0.37997797  0.75073714    -0.06300
C2363       C  0.24839328  0.40983121  0.75879227    -0.21400
C2364       C  0.24238518  0.43040036  0.74087400     0.24400
C2365       C  0.23956992  0.41885184  0.71588366    -0.18900
C2366       C  0.24432817  0.38911179  0.70788075    -0.08900
C2367       C  0.24027782  0.46455477  0.74778229    -0.19200
C2368       C  0.24151412  0.48820170  0.73009074    -0.24000
C2369       C  0.23923417  0.52237485  0.73620800     0.26400
C2370       C  0.23269157  0.54139537  0.71800291    -0.20700
C2371       C  0.22883211  0.57252326  0.72438531    -0.10400
C2372       C  0.23186059  0.58541306  0.74874703    -0.10900
C2373       C  0.23947448  0.56751976  0.76604929    -0.03800
C2374       C  0.24305057  0.53598686  0.75992141    -0.19000
H2375       H  0.25909346  0.36602583  0.76389583     0.10100
H2376       H  0.25045570  0.41803920  0.77828255     0.10200
H2377       H  0.23443365  0.43359351  0.70197028     0.09900
H2378       H  0.24333938  0.38222664  0.68771978     0.11000
H2379       H  0.23836796  0.47046621  0.76793563     0.11100
H2380       H  0.24354668  0.48234364  0.70999245     0.13000
H2381       H  0.22981691  0.53141070  0.69949861     0.09500
H2382       H  0.22281963  0.58585528  0.71093271     0.11600
H2383       H  0.24170647  0.57688666  0.78511517     0.08200
H2384       H  0.24841678  0.52197783  0.77399106     0.10900
C2385       C  0.26249643  0.49226229  0.98207123    -0.03700
C2386       C  0.25324961  0.51455248  0.99081084    -0.06300
C2387       C  0.24697218  0.53519324  0.97334344    -0.21400
C2388       C  0.24946993  0.53340013  0.94662585     0.24400
C2389       C  0.25868825  0.51099591  0.93781586    -0.18900
C2390       C  0.26522052  0.49088440  0.95539035    -0.08900
C2391       C  0.24270298  0.55595375  0.92856307    -0.19200
C2392       C  0.23911245  0.54750249  0.90437676    -0.24000
C2393       C  0.23229070  0.56937388  0.88585994     0.26400
C2394       C  0.22428197  0.55579595  0.86690179    -0.20700
C2395       C  0.21861104  0.57490481  0.84763719    -0.10400
C2396       C  0.22098221  0.60817353  0.84645500    -0.10900
C2397       C  0.22878593  0.62200089  0.86578136    -0.03800
C2398       C  0.23432620  0.60285109  0.88536823    -0.19000
H2399       H  0.25100656  0.51635682  0.01127156     0.10100
H2400       H  0.24001733  0.55238551  0.98069688     0.10200
H2401       H  0.26104982  0.50944529  0.91741408     0.09900
H2402       H  0.27229476  0.47397544  0.94808837     0.11000
H2403       H  0.23997837  0.57945881  0.93593653     0.11100
H2404       H  0.24075156  0.52288925  0.89812942     0.13000
H2405       H  0.22257782  0.53011184  0.86671882     0.09500
H2406       H  0.21275525  0.56329840  0.83302007     0.11600
H2407       H  0.23092420  0.64746207  0.86532374     0.08200
H2408       H  0.24063900  0.61407488  0.89937275     0.10900
C2409       C  0.22934357  0.73854875  0.72540524    -0.03700
C2410       C  0.22303413  0.76469553  0.71357353    -0.06300
C2411       C  0.22965839  0.78530752  0.69682304    -0.21400
C2412       C  0.24279253  0.78055944  0.69138183     0.24400
C2413       C  0.24912267  0.75417431  0.70308964    -0.18900
C2414       C  0.24245593  0.73345312  0.71986970    -0.08900
C2415       C  0.24920827  0.80352390  0.67312060    -0.19200
C2416       C  0.26179924  0.80284578  0.66649327    -0.24000
C2417       C  0.26750290  0.82468179  0.64659736     0.26400
C2418       C  0.27817335  0.81385428  0.63231200    -0.20700
C2419       C  0.28316311  0.83227059  0.61195311    -0.10400
C2420       C  0.27772750  0.86228321  0.60561870    -0.10900
C2421       C  0.26757559  0.87412303  0.62098185    -0.03800
C2422       C  0.26249856  0.85552495  0.64124457    -0.19000
H2423       H  0.21293718  0.76940598  0.71734410     0.10100
H2424       H  0.22445978  0.80521290  0.68811725     0.10200
H2425       H  0.25917259  0.74915277  0.69950533     0.09900
H2426       H  0.24761076  0.71357451  0.72868521     0.11000
H2427       H  0.24303407  0.82139677  0.66405140     0.11100
H2428       H  0.26808384  0.78446848  0.67438814     0.13000
H2429       H  0.28235014  0.79044887  0.63623410     0.09500
H2430       H  0.29103501  0.82249519  0.60061894     0.11600
H2431       H  0.26320276  0.89719717  0.61668580     0.08200
H2432       H  0.25458738  0.86525846  0.65244449     0.10900
C2433       C  0.03676404  0.47018267  0.83216713    -0.03700
C2434       C  0.04875637  0.45670993  0.83883049    -0.06300
C2435       C  0.04946615  0.42725253  0.85177639    -0.21400
C2436       C  0.03824979  0.41025210  0.85812519     0.24400
C2437       C  0.02619234  0.42407174  0.85212991    -0.18900
C2438       C  0.02547538  0.45376531  0.83928144    -0.08900
C2439       C  0.03967935  0.37847245  0.87114626    -0.19200
C2440       C  0.03078584  0.35495054  0.87010568    -0.24000
C2441       C  0.03259429  0.32266441  0.88220244     0.26400
C2442       C  0.02165639  0.30415515  0.88775594    -0.20700
C2443       C  0.02285264  0.27392943  0.89942383    -0.10400
C2444       C  0.03505773  0.26132870  0.90573681    -0.10900
C2445       C  0.04605047  0.27938276  0.89949674    -0.03800
C2446       C  0.04485269  0.30962686  0.88773617    -0.19000
H2447       H  0.05764365  0.46864393  0.83360235     0.10100
H2448       H  0.05886790  0.41732073  0.85631857     0.10200
H2449       H  0.01730950  0.41219921  0.85736313     0.09900
H2450       H  0.01608792  0.46348025  0.83436754     0.11000
H2451       H  0.04869522  0.37414093  0.88122000     0.11100
H2452       H  0.02173537  0.35932556  0.86013898     0.13000
H2453       H  0.01211004  0.31339299  0.88350906     0.09500
H2454       H  0.01416156  0.26080305  0.90412342     0.11600
H2455       H  0.05558472  0.27036407  0.90406893     0.08200
H2456       H  0.05357255  0.32246782  0.88292824     0.10900
C2457       C  0.05448701  0.58080712  0.70486120    -0.03700
C2458       C  0.05370138  0.55602691  0.68639865    -0.06300
C2459       C  0.05537302  0.56252272  0.66003261    -0.21400
C2460       C  0.05775458  0.59394050  0.65139395     0.24400
C2461       C  0.05907957  0.61857028  0.66996607    -0.18900
C2462       C  0.05739333  0.61206330  0.69639731    -0.08900
C2463       C  0.05848947  0.59994199  0.62292815    -0.19200
C2464       C  0.05592245  0.62881491  0.61214673    -0.24000
C2465       C  0.05507780  0.63538141  0.58372837     0.26400
C2466       C  0.05145266  0.66648706  0.57597419    -0.20700
C2467       C  0.04971996  0.67402025  0.54983600    -0.10400
C2468       C  0.05157293  0.65061413  0.53058436    -0.10900
C2469       C  0.05550271  0.61959021  0.53811413    -0.03800
C2470       C  0.05727212  0.61200817  0.56439678    -0.19000
H2471       H  0.05151033  0.53162107  0.69224543     0.10100
H2472       H  0.05442642  0.54303490  0.64625216     0.10200
H2473       H  0.06139574  0.64290568  0.66429189     0.09900
H2474       H  0.05814540  0.63162276  0.71014934     0.11000
H2475       H  0.06025447  0.57925754  0.61069561     0.11100
H2476       H  0.05354863  0.64877282  0.62478998     0.13000
H2477       H  0.04971579  0.68505129  0.59027411     0.09500
H2478       H  0.04667830  0.69815765  0.54477691     0.11600
H2479       H  0.05700998  0.60101443  0.52372396     0.08200
H2480       H  0.06017463  0.58776985  0.56921113     0.10900
C2481       C  0.07957592  0.57943136  0.80351809    -0.03700
C2482       C  0.08939072  0.55784812  0.79632972    -0.06300
C2483       C  0.10236176  0.56571734  0.80015271    -0.21400
C2484       C  0.10584477  0.59545622  0.81091052     0.24400
C2485       C  0.09602078  0.61649648  0.81912947    -0.18900
C2486       C  0.08304618  0.60855828  0.81544683    -0.08900
C2487       C  0.11977007  0.60380102  0.81280149    -0.19200
C2488       C  0.12418542  0.63429290  0.81232389    -0.24000
C2489       C  0.13812601  0.64241371  0.81049017     0.26400
C2490       C  0.14173382  0.67096849  0.79792187    -0.20700
C2491       C  0.15473411  0.67802970  0.79358346    -0.10400
C2492       C  0.16444625  0.65682306  0.80202955    -0.10900
C2493       C  0.16086021  0.62925058  0.81609771    -0.03800
C2494       C  0.14784716  0.62210260  0.82029832    -0.19000
H2495       H  0.08706878  0.53524684  0.78707383     0.10100
H2496       H  0.10972414  0.54891631  0.79386695     0.10200
H2497       H  0.09829441  0.63917283  0.82826217     0.09900
H2498       H  0.07573352  0.62571706  0.82129049     0.11000
H2499       H  0.12662442  0.58404160  0.81203116     0.11100
H2500       H  0.11736717  0.65401872  0.81050348     0.13000
H2501       H  0.13444766  0.68723632  0.79044603     0.09500
H2502       H  0.15714434  0.69947849  0.78271372     0.11600
H2503       H  0.16809653  0.61249020  0.82302492     0.08200
H2504       H  0.14544633  0.60046161  0.83088133     0.10900
C2505       C  0.97002722  0.36908705  0.60782664    -0.03700
C2506       C  0.96308728  0.39588164  0.61691593    -0.06300
C2507       C  0.96754115  0.41345665  0.63824953    -0.21400
C2508       C  0.97904123  0.40477293  0.65085596     0.24400
C2509       C  0.98556247  0.37683292  0.64265938    -0.18900
C2510       C  0.98114529  0.35936297  0.62131866    -0.08900
C2511       C  0.98402500  0.42557276  0.67213475    -0.19200
C2512       C  0.99664846  0.42709287  0.67833554    -0.24000
C2513       C  0.00240413  0.44857241  0.69838106     0.26400
C2514       C  0.01569753  0.44582900  0.70302032    -0.20700
C2515       C  0.02183398  0.46564908  0.72096724    -0.10400
C2516       C  0.01485736  0.48900001  0.73477365    -0.10900
C2517       C  0.00153516  0.49184794  0.73034386    -0.03800
C2518       C  0.99534234  0.47180805  0.71239429    -0.19000
H2519       H  0.95446864  0.40398243  0.60698250     0.10100
H2520       H  0.96221714  0.43456895  0.64436635     0.10200
H2521       H  0.99412577  0.36836957  0.65251387     0.09900
H2522       H  0.98662693  0.33859105  0.61502917     0.11000
H2523       H  0.97712981  0.44108805  0.68175689     0.11100
H2524       H  0.00340423  0.41232291  0.66754626     0.13000
H2525       H  0.02142753  0.42827990  0.69259207     0.09500
H2526       H  0.03211597  0.46282794  0.72383414     0.11600
H2527       H  0.99589199  0.50954533  0.74077257     0.08200
H2528       H  0.98511066  0.47501879  0.70955338     0.10900
C2529       C  0.95467468  0.71940534  0.07916604    -0.03700
C2530       C  0.96261207  0.71477440  0.10093316    -0.06300
C2531       C  0.96210351  0.68592245  0.11489100    -0.21400
C2532       C  0.95385402  0.66109224  0.10701916     0.24400
C2533       C  0.94563200  0.66613254  0.08578428    -0.18900
C2534       C  0.94602299  0.69498485  0.07205692    -0.08900
C2535       C  0.95383357  0.63032140  0.12142647    -0.19200
C2536       C  0.95159122  0.60190553  0.10980290    -0.24000
C2537       C  0.95184437  0.57117779  0.12424213     0.26400
C2538       C  0.95653926  0.54333007  0.11210766    -0.20700
C2539       C  0.95767230  0.51455630  0.12601913    -0.10400
C2540       C  0.95381737  0.51310422  0.15209680    -0.10900
C2541       C  0.94840590  0.54055466  0.16370045    -0.03800
C2542       C  0.94748097  0.56934460  0.14996067    -0.19000
H2543       H  0.96934959  0.73317287  0.10689295     0.10100
H2544       H  0.96840803  0.68263566  0.13143631     0.10200
H2545       H  0.93886591  0.64783800  0.07977080     0.09900
H2546       H  0.93972342  0.69782075  0.05545518     0.11000
H2547       H  0.95647428  0.63089350  0.14180939     0.11100
H2548       H  0.95037516  0.60087791  0.08889696     0.13000
H2549       H  0.95976600  0.54415755  0.09214339     0.09500
H2550       H  0.96178998  0.49367988  0.11657235     0.11600
H2551       H  0.94530683  0.54015275  0.18375331     0.08200
H2552       H  0.94342632  0.59019269  0.15953613     0.10900
C2553       C  0.96998663  0.86391155  0.10464227    -0.03700
C2554       C  0.97940278  0.84914996  0.12027935    -0.06300
C2555       C  0.98439687  0.86498053  0.14192443    -0.21400
C2556       C  0.98026300  0.89612243  0.14833162     0.24400
C2557       C  0.97031504  0.91025800  0.13349875    -0.18900
C2558       C  0.96523899  0.89426497  0.11188182    -0.08900
C2559       C  0.98688565  0.91300044  0.17006540    -0.19200
C2560       C  0.98687745  0.94517678  0.17317548    -0.24000
C2561       C  0.99446193  0.96202842  0.19352483     0.26400
C2562       C  0.99028313  0.99238772  0.20187259    -0.20700
C2563       C  0.99736198  0.00972741  0.22015198    -0.10400
C2564       C  0.00895148  0.99733259  0.23025804    -0.10900
C2565       C  0.01323996  0.96704915  0.22174947    -0.03800
C2566       C  0.00607128  0.94951912  0.20360298    -0.19000
H2567       H  0.98318370  0.82563401  0.11537511     0.10100
H2568       H  0.99189197  0.85326428  0.15316085     0.10200
H2569       H  0.96648307  0.93371074  0.13823403     0.09900
H2570       H  0.95794546  0.90618850  0.10027682     0.11000
H2571       H  0.99252734  0.89825920  0.18328466     0.11100
H2572       H  0.98118689  0.96020789  0.16030585     0.13000
H2573       H  0.98146682  0.00275178  0.19422582     0.09500
H2574       H  0.99381024  0.03305608  0.22615996     0.11600
H2575       H  0.02216173  0.95691527  0.22906701     0.08200
H2576       H  0.00983223  0.92666140  0.19705398     0.10900
C2577       C  0.98961606  0.87440958  0.00334948    -0.03700
C2578       C  0.00086332  0.88263678  0.01678359    -0.06300
C2579       C  0.00694811  0.91193531  0.01155669    -0.21400
C2580       C  0.00169354  0.93319440  0.99316011     0.24400
C2581       C  0.99144657  0.92285639  0.97749610    -0.18900
C2582       C  0.98542048  0.89369680  0.98266638    -0.08900
C2583       C  0.00622193  0.96685078  0.99232608    -0.19200
C2584       C  0.99809469  0.99160636  0.98776455    -0.24000
C2585       C  0.00235137  0.02547310  0.98751694     0.26400
C2586       C  0.99641187  0.04724085  0.97043618    -0.20700
C2587       C  0.00146929  0.07807116  0.96704760    -0.10400
C2588       C  0.01246126  0.08750687  0.98093838    -0.10900
C2589       C  0.01748593  0.06689904  0.00007246    -0.03800
C2590       C  0.01247967  0.03612220  0.00334320    -0.19000
H2591       H  0.00408307  0.86826833  0.03309664     0.10100
H2592       H  0.01500910  0.91926091  0.02349540     0.10200
H2593       H  0.98755528  0.93813627  0.96236933     0.09900
H2594       H  0.97668274  0.88771769  0.97222663     0.11000
H2595       H  0.01624107  0.97138574  0.99711536     0.11100
H2596       H  0.98806204  0.98698470  0.98312539     0.13000
H2597       H  0.98839284  0.03967819  0.95847554     0.09500
H2598       H  0.99741111  0.09347279  0.95216151     0.11600
H2599       H  0.02583824  0.07378798  0.01136110     0.08200
H2600       H  0.01683755  0.02038437  0.01761062     0.10900
C2601       C  0.97376126  0.73723045  0.97650698    -0.03700
C2602       C  0.96664760  0.72343255  0.95618773    -0.06300
C2603       C  0.97279601  0.70452162  0.93734233    -0.21400
C2604       C  0.98619956  0.69947409  0.93808990     0.24400
C2605       C  0.99330186  0.71334267  0.95840712    -0.18900
C2606       C  0.98715761  0.73192423  0.97734463    -0.08900
C2607       C  0.99238899  0.67844385  0.91821926    -0.19200
C2608       C  0.00487653  0.68099562  0.91112030    -0.24000
C2609       C  0.01107106  0.65976549  0.89143761     0.26400
C2610       C  0.02133402  0.67169812  0.87653470    -0.20700
C2611       C  0.02713068  0.65268665  0.85735521    -0.10400
C2612       C  0.02296765  0.62100486  0.85301265    -0.10900
C2613       C  0.01308918  0.60857876  0.86878658    -0.03800
C2614       C  0.00717984  0.62773911  0.88770800    -0.19000
H2615       H  0.95632141  0.72698683  0.95499375     0.10100
H2616       H  0.96706620  0.69389243  0.92204423     0.10200
H2617       H  0.00356871  0.70930873  0.96013413     0.09900
H2618       H  0.99294492  0.74214265  0.99272691     0.11000
H2619       H  0.98628959  0.66110307  0.90842760     0.11100
H2620       H  0.01065623  0.70041460  0.91893933     0.13000
H2621       H  0.02463911  0.69614560  0.87924543     0.09500
H2622       H  0.03467750  0.66305329  0.84552512     0.11600
H2623       H  0.00960728  0.58432277  0.86594086     0.08200
H2624       H  0.99958213  0.61739291  0.89938875     0.10900
C2625       C  0.79114036  0.22473380  0.15630439    -0.03700
C2626       C  0.80282736  0.20758523  0.15623655    -0.06300
C2627       C  0.80404652  0.17907999  0.14212135    -0.21400
C2628       C  0.79353848  0.16670773  0.12829444     0.24400
C2629       C  0.78191430  0.18424075  0.12781907    -0.18900
C2630       C  0.78075679  0.21306910  0.14161167    -0.08900
C2631       C  0.79506786  0.13558968  0.11453254    -0.19200
C2632       C  0.78529819  0.11469634  0.11154482    -0.24000
C2633       C  0.78675295  0.08269910  0.09904637     0.26400
C2634       C  0.77785846  0.05854501  0.10520900    -0.20700
C2635       C  0.77841835  0.02862222  0.09299862    -0.10400
C2636       C  0.78781128  0.02225036  0.07403196    -0.10900
C2637       C  0.79687119  0.04623504  0.06812109    -0.03800
C2638       C  0.79635073  0.07617463  0.08047085    -0.19000
H2639       H  0.81100714  0.21607411  0.16730519     0.10100
H2640       H  0.81312956  0.16618631  0.14256850     0.10200
H2641       H  0.77372965  0.17581053  0.11676410     0.09900
H2642       H  0.77162688  0.22576697  0.14136054     0.11000
H2643       H  0.80471969  0.12875262  0.10857547     0.11100
H2644       H  0.77596360  0.12043097  0.11988965     0.13000
H2645       H  0.77034647  0.06296113  0.11935067     0.09500
H2646       H  0.77122137  0.01080835  0.09788942     0.11600
H2647       H  0.80412673  0.04223296  0.05337734     0.08200
H2648       H  0.80318561  0.09442324  0.07471528     0.10900
C2649       C  0.72242327  0.12170623  0.85006175    -0.03700
C2650       C  0.72509966  0.13805089  0.87326138    -0.06300
C2651       C  0.73108140  0.12207889  0.89400177    -0.21400
C2652       C  0.73488942  0.08975550  0.89170711     0.24400
C2653       C  0.73199870  0.07324068  0.86863632    -0.18900
C2654       C  0.72576260  0.08901076  0.84811790    -0.08900
C2655       C  0.74156009  0.07372908  0.91386468    -0.19200
C2656       C  0.75045659  0.05027387  0.91074003    -0.24000
C2657       C  0.75716724  0.03379907  0.93268520     0.26400
C2658       C  0.76920757  0.01915442  0.92833088    -0.20700
C2659       C  0.77550495  0.00209271  0.94814654    -0.10400
C2660       C  0.76979357  0.99887887  0.97271864    -0.10900
C2661       C  0.75775115  0.01361630  0.97707164    -0.03800
C2662       C  0.75151998  0.03085788  0.95736170    -0.19000
H2663       H  0.72265834  0.16326607  0.87526944     0.10100
H2664       H  0.73305081  0.13525118  0.91166421     0.10200
H2665       H  0.73448333  0.04810042  0.86644075     0.09900
H2666       H  0.72393574  0.07588274  0.83037280     0.11000
H2667       H  0.73956926  0.08284645  0.93317115     0.11100
H2668       H  0.75332330  0.04355997  0.89122490     0.13000
H2669       H  0.77374154  0.02081370  0.90945919     0.09500
H2670       H  0.78472596  0.99093510  0.94408314     0.11600
H2671       H  0.75302426  0.01151961  0.99571951     0.08200
H2672       H  0.74211717  0.04099643  0.96134775     0.10900
C2673       C  0.82779375  0.90139670  0.05632482    -0.03700
C2674       C  0.82958668  0.87070015  0.06730024    -0.06300
C2675       C  0.84193242  0.85844007  0.07159418    -0.21400
C2676       C  0.85284835  0.87655662  0.06527406     0.24400
C2677       C  0.85108929  0.90812995  0.05570935    -0.18900
C2678       C  0.83865364  0.92046498  0.05140406    -0.08900
C2679       C  0.86569601  0.86041607  0.06649357    -0.19200
C2680       C  0.87693048  0.87644716  0.06737971    -0.24000
C2681       C  0.88997157  0.86132648  0.06534496     0.26400
C2682       C  0.90066492  0.88163714  0.06750574    -0.20700
C2683       C  0.91306770  0.87024486  0.06265638    -0.10400
C2684       C  0.91520454  0.83806480  0.05544749    -0.10900
C2685       C  0.90465556  0.81702968  0.05468130    -0.03800
C2686       C  0.89212336  0.82853061  0.05949431    -0.19000
H2687       H  0.82140155  0.85541311  0.07143646     0.10100
H2688       H  0.84295194  0.83416994  0.07900267     0.10200
H2689       H  0.85921319  0.92273952  0.05004593     0.09900
H2690       H  0.83757112  0.94399648  0.04264010     0.11000
H2691       H  0.86573354  0.83436516  0.06642402     0.11100
H2692       H  0.87664839  0.90242471  0.06917481     0.13000
H2693       H  0.89939836  0.90687357  0.07206960     0.09500
H2694       H  0.92098168  0.88712410  0.06361945     0.11600
H2695       H  0.90600110  0.79217047  0.04905369     0.08200
H2696       H  0.88423465  0.81184340  0.05753118     0.10900
C2697       C  0.73287335  0.74543398  0.23108508    -0.03700
C2698       C  0.74531334  0.73556394  0.22370893    -0.06300
C2699       C  0.75256345  0.75385674  0.20626873    -0.21400
C2700       C  0.74766666  0.78266786  0.19599783     0.24400
C2701       C  0.73520802  0.79265149  0.20339035    -0.18900
C2702       C  0.72791185  0.77422563  0.22075267    -0.08900
C2703       C  0.75550730  0.80036306  0.17645057    -0.19200
C2704       C  0.75408314  0.83196032  0.17125421    -0.24000
C2705       C  0.76094174  0.84895920  0.14986325     0.26400
C2706       C  0.75542561  0.87724049  0.13993137    -0.20700
C2707       C  0.76075769  0.89259632  0.11837086    -0.10400
C2708       C  0.77185846  0.88023211  0.10628870    -0.10900
C2709       C  0.77787126  0.85302090  0.11712446    -0.03800
C2710       C  0.77248603  0.83752344  0.13871608    -0.19000
H2711       H  0.74943673  0.71351466  0.23126784     0.10100
H2712       H  0.76206268  0.74542414  0.20074871     0.10200
H2713       H  0.73089248  0.81415295  0.19533431     0.09900
H2714       H  0.71834648  0.78245658  0.22597016     0.11000
H2715       H  0.76256823  0.78638788  0.16577281     0.11100
H2716       H  0.74705407  0.84581939  0.18214377     0.13000
H2717       H  0.74664812  0.88687161  0.14828526     0.09500
H2718       H  0.75591942  0.91364812  0.11066409     0.11600
H2719       H  0.78648362  0.84303120  0.10838026     0.08200
H2720       H  0.77733624  0.81650310  0.14633579     0.10900
C2721       C  0.73296993  0.64799826  0.98322130    -0.03700
C2722       C  0.74367405  0.65895264  0.96917163    -0.06300
C2723       C  0.74817762  0.69030624  0.97275620    -0.21400
C2724       C  0.74197773  0.71110902  0.99021958     0.24400
C2725       C  0.73214474  0.69898680  0.00613546    -0.18900
C2726       C  0.72768560  0.66772760  0.00263864    -0.08900
C2727       C  0.74570835  0.74543199  0.99078616    -0.19200
C2728       C  0.73746432  0.76926897  0.99721962    -0.24000
C2729       C  0.74157926  0.80325017  0.99815084     0.26400
C2730       C  0.73711198  0.82304368  0.01827780    -0.20700
C2731       C  0.74291931  0.85282054  0.02281163    -0.10400
C2732       C  0.75303882  0.86317533  0.00690943    -0.10900
C2733       C  0.75639978  0.84515348  0.98499757    -0.03800
C2734       C  0.75068511  0.81538996  0.98055478    -0.19000
H2735       H  0.74789354  0.64430305  0.95402061     0.10100
H2736       H  0.75597792  0.69897002  0.96069623     0.10200
H2737       H  0.72759364  0.71383823  0.02072549     0.09900
H2738       H  0.71952788  0.65970311  0.01402082     0.11000
H2739       H  0.75546385  0.75128758  0.98482432     0.11100
H2740       H  0.72771901  0.76377707  0.00340030     0.13000
H2741       H  0.72996373  0.81426317  0.03184218     0.09500
H2742       H  0.74045064  0.86609526  0.04018444     0.11600
H2743       H  0.76431306  0.85268534  0.97276120     0.08200
H2744       H  0.75395017  0.80111511  0.96427974     0.10900
C2745       C  0.95557626  0.22330402  0.57892769    -0.03700
C2746       C  0.96488688  0.21645903  0.59795253    -0.06300
C2747       C  0.96538894  0.18617793  0.60972455    -0.21400
C2748       C  0.95654859  0.16210393  0.60297433     0.24400
C2749       C  0.94689368  0.16935095  0.58466714    -0.18900
C2750       C  0.94641797  0.19962951  0.57282131    -0.08900
C2751       C  0.95829939  0.12938641  0.61422070    -0.19200
C2752       C  0.94907054  0.10669530  0.61468602    -0.24000
C2753       C  0.95114519  0.07469955  0.62680968     0.26400
C2754       C  0.94084212  0.05998070  0.63969110    -0.20700
C2755       C  0.94268563  0.03109821  0.65302368    -0.10400
C2756       C  0.95480803  0.01590958  0.65321228    -0.10900
C2757       C  0.96493928  0.02951233  0.63895841    -0.03800
C2758       C  0.96315192  0.05881956  0.62597747    -0.19000
H2759       H  0.97214158  0.23404525  0.60299923     0.10100
H2760       H  0.97292478  0.18128974  0.62373600     0.10200
H2761       H  0.94002793  0.15141190  0.57850306     0.09900
H2762       H  0.93917022  0.20405682  0.55812650     0.11000
H2763       H  0.96751193  0.12416536  0.62333246     0.11100
H2764       H  0.93942125  0.11236686  0.60797396     0.13000
H2765       H  0.93146705  0.07149223  0.64028343     0.09500
H2766       H  0.93466954  0.02092226  0.66367295     0.11600
H2767       H  0.97435804  0.01822465  0.63876987     0.08200
H2768       H  0.97117802  0.06913670  0.61550462     0.10900
C2769       C  0.97710874  0.99685254  0.75411387    -0.03700
C2770       C  0.98729041  0.01642255  0.74556531    -0.06300
C2771       C  0.99424186  0.03530152  0.76303304    -0.21400
C2772       C  0.99146951  0.03451495  0.78962643     0.24400
C2773       C  0.98131640  0.01485148  0.79838097    -0.18900
C2774       C  0.97411812  0.99641206  0.78072161    -0.08900
C2775       C  0.99899890  0.05565986  0.80731857    -0.19200
C2776       C  0.00223569  0.04739472  0.83175357    -0.24000
C2777       C  0.01010585  0.06830737  0.84913913     0.26400
C2778       C  0.01750778  0.05400544  0.86884208    -0.20700
C2779       C  0.02427314  0.07289008  0.88670907    -0.10400
C2780       C  0.02362045  0.10667771  0.88563670    -0.10900
C2781       C  0.01644848  0.12104474  0.86554279    -0.03800
C2782       C  0.00980726  0.10211860  0.84744872    -0.19000
H2783       H  0.98981158  0.01743953  0.72520011     0.10100
H2784       H  0.00192954  0.05038518  0.75575078     0.10200
H2785       H  0.97877742  0.01421245  0.81873554     0.09900
H2786       H  0.96634129  0.98153115  0.78788071     0.11000
H2787       H  0.00275587  0.07783981  0.79920542     0.11100
H2788       H  0.99954464  0.02376558  0.83891999     0.13000
H2789       H  0.01788615  0.02806617  0.87069107     0.09500
H2790       H  0.02955033  0.06095258  0.90209609     0.11600
H2791       H  0.01559947  0.14696010  0.86432267     0.08200
H2792       H  0.00400179  0.11407701  0.83289838     0.10900
C2793       C  0.94071021  0.84172549  0.95434298    -0.03700
C2794       C  0.93555934  0.81680708  0.93915594    -0.06300
C2795       C  0.93484308  0.81980651  0.91229338    -0.21400
C2796       C  0.93899851  0.84796578  0.90006583     0.24400
C2797       C  0.94378802  0.87340349  0.91524731    -0.18900
C2798       C  0.94466930  0.87024134  0.94218819    -0.08900
C2799       C  0.93896485  0.84919096  0.87140656    -0.19200
C2800       C  0.93745559  0.87674347  0.85820689    -0.24000
C2801       C  0.93787378  0.87867562  0.82956767     0.26400
C2802       C  0.93174657  0.90470999  0.81750411    -0.20700
C2803       C  0.93300476  0.90959555  0.79091927    -0.10400
C2804       C  0.94056089  0.88869301  0.77579727    -0.10900
C2805       C  0.94624887  0.86172656  0.78761356    -0.03800
C2806       C  0.94497185  0.85679966  0.81433671    -0.19000
H2807       H  0.93255068  0.79436115  0.94790629     0.10100
H2808       H  0.93119414  0.79988087  0.90097979     0.10200
H2809       H  0.94736411  0.89518035  0.90631819     0.09900
H2810       H  0.94879244  0.88967136  0.95339338     0.11000
H2811       H  0.93968726  0.82658042  0.86101253     0.11100
H2812       H  0.93545075  0.89879184  0.86874150     0.13000
H2813       H  0.92622320  0.92181970  0.82880547     0.09500
H2814       H  0.92843486  0.93053707  0.78239597     0.11600
H2815       H  0.95214329  0.84528292  0.77646447     0.08200
H2816       H  0.95005117  0.83678384  0.82308478     0.10900
C2817       C  0.97016324  0.87294794  0.62517074    -0.03700
C2818       C  0.98068939  0.88577399  0.61149996    -0.06300
C2819       C  0.98574640  0.86998603  0.58989246    -0.21400
C2820       C  0.98057984  0.84068485  0.58147766     0.24400
C2821       C  0.96965118  0.82842712  0.59435657    -0.18900
C2822       C  0.96447549  0.84450027  0.61597437    -0.08900
C2823       C  0.98715427  0.82383479  0.55961580    -0.19200
C2824       C  0.98680076  0.79176904  0.55572482    -0.24000
C2825       C  0.99476659  0.77486418  0.53576904     0.26400
C2826       C  0.99092183  0.74434394  0.52715738    -0.20700
C2827       C  0.99837001  0.72717475  0.50919346    -0.10400
C2828       C  0.01000404  0.73988894  0.49971358    -0.10900
C2829       C  0.01395589  0.77024809  0.50853202    -0.03800
C2830       C  0.00644285  0.78757034  0.52629531    -0.19000
H2831       H  0.98527787  0.90772736  0.61791729     0.10100
H2832       H  0.99405964  0.88020180  0.58024493     0.10200
H2833       H  0.96514232  0.80640267  0.58798574     0.09900
H2834       H  0.95633899  0.83405502  0.62604125     0.11000
H2835       H  0.99320488  0.83850570  0.54721085     0.11100
H2836       H  0.98066512  0.77698707  0.56788113     0.13000
H2837       H  0.98209030  0.73372154  0.53434801     0.09500
H2838       H  0.99509952  0.70372255  0.50298173     0.11600
H2839       H  0.02289552  0.78065331  0.50171388     0.08200
H2840       H  0.01003461  0.81045072  0.53301195     0.10900
C2841       C  0.98820953  0.85687180  0.72844526    -0.03700
C2842       C  0.99970899  0.84652114  0.71695343    -0.06300
C2843       C  0.00532366  0.81739620  0.72474135    -0.21400
C2844       C  0.99935603  0.79822975  0.74372843     0.24400
C2845       C  0.98863561  0.81052808  0.75709540    -0.18900
C2846       C  0.98308228  0.83955077  0.74937046    -0.08900
C2847       C  0.00383742  0.76465467  0.74744094    -0.19200
C2848       C  0.99582592  0.74045614  0.75406115    -0.24000
C2849       C  0.00002982  0.70637721  0.75462880     0.26400
C2850       C  0.99455776  0.68504250  0.77264431    -0.20700
C2851       C  0.99936539  0.65366449  0.77520431    -0.10400
C2852       C  0.00959799  0.64319250  0.75948425    -0.10900
C2853       C  0.01414173  0.66361777  0.73978164    -0.03800
C2854       C  0.00943065  0.69486898  0.73738776    -0.19000
H2855       H  0.00364894  0.85929679  0.70045638     0.10100
H2856       H  0.01371701  0.80859065  0.71445571     0.10200
H2857       H  0.98412050  0.79707483  0.77258406     0.09900
H2858       H  0.97415764  0.84722716  0.75833876     0.11000
H2859       H  0.01378535  0.75932002  0.74247839     0.11100
H2860       H  0.98587634  0.74548144  0.75914893     0.13000
H2861       H  0.98707113  0.69323226  0.78572383     0.09500
H2862       H  0.99573878  0.63852389  0.79065092     0.11600
H2863       H  0.02193009  0.65608290  0.72716100     0.08200
H2864       H  0.01338917  0.71018227  0.72241556     0.10900
C2865       C  0.78630819  0.72778589  0.65526683    -0.03700
C2866       C  0.77567843  0.72059450  0.63946326    -0.06300
C2867       C  0.77529346  0.69174659  0.62558642    -0.21400
C2868       C  0.78549331  0.66957797  0.62727085     0.24400
C2869       C  0.79654753  0.67798221  0.64152722    -0.18900
C2870       C  0.79689636  0.70667112  0.65551030    -0.08900
C2871       C  0.78411262  0.63780995  0.61443074    -0.19200
C2872       C  0.79079988  0.61147088  0.62169450    -0.24000
C2873       C  0.78920239  0.57977147  0.60909182     0.26400
C2874       C  0.79992956  0.55936243  0.60709452    -0.20700
C2875       C  0.79897136  0.53001524  0.59414160    -0.10400
C2876       C  0.78716376  0.52018572  0.58349238    -0.10900
C2877       C  0.77623837  0.53977138  0.58677531    -0.03800
C2878       C  0.77725227  0.56941905  0.59935712    -0.19000
H2879       H  0.76741071  0.73653127  0.63874906     0.10100
H2880       H  0.76677428  0.68615171  0.61433827     0.10200
H2881       H  0.80490330  0.66242419  0.64227969     0.09900
H2882       H  0.80534771  0.71194002  0.66706229     0.11000
H2883       H  0.77699747  0.63584669  0.59906346     0.11100
H2884       H  0.79798052  0.61299328  0.63691845     0.13000
H2885       H  0.80918271  0.56665277  0.61480883     0.09500
H2886       H  0.80753298  0.51529606  0.59198669     0.11600
H2887       H  0.76702274  0.53276071  0.57873595     0.08200
H2888       H  0.76870596  0.58417583  0.60137973     0.10900
C2889       C  0.77376789  0.87401167  0.63350141    -0.03700
C2890       C  0.78026251  0.90151741  0.62461241    -0.06300
C2891       C  0.77548501  0.91919350  0.60346397    -0.21400
C2892       C  0.76408789  0.90994386  0.59074106     0.24400
C2893       C  0.75796140  0.88148440  0.59888390    -0.18900
C2894       C  0.76270023  0.86392434  0.62005168    -0.08900
C2895       C  0.75893102  0.93058694  0.56924906    -0.19200
C2896       C  0.74646776  0.93037215  0.56146769    -0.24000
C2897       C  0.74077029  0.95165576  0.54093530     0.26400
C2898       C  0.72812969  0.94534841  0.53252012    -0.20700
C2899       C  0.72206343  0.96501489  0.51408859    -0.10400
C2900       C  0.72846767  0.99168474  0.50349763    -0.10900
C2901       C  0.74114350  0.99802795  0.51175232    -0.03800
C2902       C  0.74722004  0.97836238  0.53025568    -0.19000
H2903       H  0.78880694  0.90998660  0.63450667     0.10100
H2904       H  0.78053040  0.94072161  0.59747403     0.10200
H2905       H  0.74949451  0.87255537  0.58908154     0.09900
H2906       H  0.75754516  0.84261298  0.62614890     0.11000
H2907       H  0.76562944  0.94724331  0.56040479     0.11100
H2908       H  0.73982845  0.91405583  0.57092023     0.13000
H2909       H  0.72286018  0.92509509  0.54034931     0.09500
H2910       H  0.71231423  0.95934529  0.50820068     0.11600
H2911       H  0.74635067  0.01847088  0.50410136     0.08200
H2912       H  0.75684751  0.98469901  0.53630653     0.10900
C2913       C  0.75701360  0.88615476  0.73582399    -0.03700
C2914       C  0.74542422  0.89469790  0.72369262    -0.06300
C2915       C  0.73969226  0.92441575  0.72915796    -0.21400
C2916       C  0.74560599  0.94576971  0.74653794     0.24400
C2917       C  0.75630341  0.93528871  0.76096956    -0.18900
C2918       C  0.76200694  0.90572751  0.75549587    -0.08900
C2919       C  0.74117722  0.97956983  0.74741562    -0.19200
C2920       C  0.74936716  0.00428169  0.75108826    -0.24000
C2921       C  0.74507682  0.03817439  0.75015782     0.26400
C2922       C  0.73514722  0.04808604  0.73345305    -0.20700
C2923       C  0.72999441  0.07892558  0.73551618    -0.10400
C2924       C  0.73464363  0.10034785  0.75436018    -0.10900
C2925       C  0.74550253  0.09163318  0.76906605    -0.03800
C2926       C  0.75073248  0.06071541  0.76684246    -0.19000
H2927       H  0.74157947  0.88007518  0.70815178     0.10100
H2928       H  0.73130326  0.93187112  0.71815692     0.10200
H2929       H  0.76073378  0.95063711  0.77534736     0.09900
H2930       H  0.77098975  0.89942214  0.76496028     0.11000
H2931       H  0.73111140  0.98431557  0.74302391     0.11100
H2932       H  0.75944362  0.99972570  0.75547906     0.13000
H2933       H  0.73102783  0.03168363  0.71946155     0.09500
H2934       H  0.72175124  0.08519132  0.72361508     0.11600
H2935       H  0.74926970  0.10765195  0.78374763     0.08200
H2936       H  0.75861758  0.05371160  0.77943765     0.10900
C2937       C  0.80732630  0.84868234  0.77963444    -0.03700
C2938       C  0.81717396  0.83124625  0.79218152    -0.06300
C2939       C  0.82024177  0.83757148  0.81814106    -0.21400
C2940       C  0.81328129  0.86079982  0.83201559     0.24400
C2941       C  0.80386400  0.87915706  0.81914422    -0.18900
C2942       C  0.80097151  0.87329867  0.79318391    -0.08900
C2943       C  0.81513177  0.86443187  0.86030458    -0.19200
C2944       C  0.80480710  0.86455756  0.87601328    -0.24000
C2945       C  0.80530598  0.86899793  0.90441803     0.26400
C2946       C  0.79553082  0.85509002  0.91937943    -0.20700
C2947       C  0.79434088  0.86236942  0.94562711    -0.10400
C2948       C  0.80270074  0.88446948  0.95735335    -0.10900
C2949       C  0.81283520  0.89756033  0.94264676    -0.03800
C2950       C  0.81420816  0.88964875  0.91636749    -0.19000
H2951       H  0.82230740  0.81230951  0.78209311     0.10100
H2952       H  0.82758907  0.82330780  0.82772396     0.10200
H2953       H  0.79852148  0.89758036  0.82940964     0.09900
H2954       H  0.79339544  0.88721447  0.78403537     0.11000
H2955       H  0.82482199  0.86512204  0.86824224     0.11100
H2956       H  0.79534526  0.86047949  0.86757408     0.13000
H2957       H  0.78853800  0.83923110  0.91052210     0.09500
H2958       H  0.78645333  0.85189875  0.95640627     0.11600
H2959       H  0.81943035  0.91463640  0.95124123     0.08200
H2960       H  0.82173360  0.90108359  0.90514833     0.10900
C2961       C  0.82946228  0.83352395  0.67932455    -0.03700
C2962       C  0.83898606  0.80956710  0.68084858    -0.06300
C2963       C  0.85191392  0.81707713  0.67589576    -0.21400
C2964       C  0.85558340  0.84861540  0.66935329     0.24400
C2965       C  0.84587888  0.87195521  0.66599401    -0.18900
C2966       C  0.83301260  0.86451880  0.67110184    -0.08900
C2967       C  0.86958383  0.85629061  0.66718161    -0.19200
C2968       C  0.87441174  0.88639658  0.66887226    -0.24000
C2969       C  0.88844502  0.89399095  0.67029484     0.26400
C2970       C  0.89219818  0.92448648  0.67929326    -0.20700
C2971       C  0.90521627  0.93175990  0.68332388    -0.10400
C2972       C  0.91477158  0.90858816  0.67847187    -0.10900
C2973       C  0.91109713  0.87876685  0.66805296    -0.03800
C2974       C  0.89811660  0.87159502  0.66381050    -0.19000
H2975       H  0.83655300  0.78548404  0.68713164     0.10100
H2976       H  0.85914277  0.79844939  0.67824157     0.10200
H2977       H  0.84810694  0.89615318  0.65984120     0.09900
H2978       H  0.82585841  0.88342692  0.66934755     0.11000
H2979       H  0.87611529  0.83593688  0.66642556     0.11100
H2980       H  0.86787066  0.90649014  0.67153781     0.13000
H2981       H  0.88499499  0.94240627  0.68415921     0.09500
H2982       H  0.90774007  0.95490415  0.69142483     0.11600
H2983       H  0.91826883  0.86053356  0.66379912     0.08200
H2984       H  0.89580062  0.84832099  0.65584403     0.10900
C2985       C  0.76906881  0.74368267  0.76031671    -0.03700
C2986       C  0.77612629  0.73060526  0.78110888    -0.06300
C2987       C  0.77005752  0.71146560  0.79986510    -0.21400
C2988       C  0.75676201  0.70529069  0.79858544     0.24400
C2989       C  0.74967731  0.71838093  0.77780929    -0.18900
C2990       C  0.75576342  0.73728313  0.75891750    -0.08900
C2991       C  0.75077142  0.68394502  0.81851346    -0.19200
C2992       C  0.73823769  0.68548532  0.82551030    -0.24000
C2993       C  0.73250016  0.66439932  0.84589557     0.26400
C2994       C  0.72226573  0.67607828  0.86106727    -0.20700
C2995       C  0.71697541  0.65728555  0.88098191    -0.10400
C2996       C  0.72163259  0.62605493  0.88585527    -0.10900
C2997       C  0.73149123  0.61384773  0.86987348    -0.03800
C2998       C  0.73688834  0.63279551  0.85019884    -0.19000
H2999       H  0.78637386  0.73496274  0.78280378     0.10100
H3000       H  0.77577845  0.70152062  0.81553368     0.10200
H3001       H  0.73949364  0.71349910  0.77573853     0.09900
H3002       H  0.75002523  0.74681621  0.74312040     0.11000
H3003       H  0.75712128  0.66741001  0.82871047     0.11100
H3004       H  0.73212935  0.70411387  0.81727056     0.13000
H3005       H  0.71858922  0.70018416  0.85797331     0.09500
H3006       H  0.70940457  0.66746672  0.89289469     0.11600
H3007       H  0.73531131  0.58989722  0.87302875     0.08200
H3008       H  0.74448265  0.62262043  0.83836972     0.10900
loop_ 
_geom_bond_atom_site_label_1 
_geom_bond_atom_site_label_2 
_geom_bond_distance 
_geom_bond_site_symmetry_2 
_ccdc_geom_bond_type 
O1           C16   1.261       .  A
O1           Al9   1.895       .  S
C2           O12   1.260       .  A
C2            O3   1.261       .  A
C2         C2937   1.478       .  S
O3           Al5   1.912       .  S
O4            C6   1.261       .  A
O4           Al5   1.909       .  S
Al5          O13   1.913       .  S
Al5          O15   1.902       .  S
Al5          O14   1.798       .  S
C6           O19   1.260       .  A
C6         C2985   1.491       .  S
O7           C17   1.259       .  A
O7           Al9   1.907       .  S
O8           C21   1.263       .  A
O8          Al18   1.910       .  S
Al9          O22   1.916       .  S
Al9          O19   1.912       .  S
Al9          O14   1.800       .  S
O10          C17   1.255       .  A
O10         Al18   1.875       .  S
O11          C20   1.256       .  A
O11         Al18   1.886       .  S
O12         Al18   1.892       .  S
O13          C20   1.261       .  A
O14         Al18   1.790       .  S
O15          C16   1.262       .  A
C16        C2865   1.477       .  S
C17        C2913   1.459       .  S
C20        C2961   1.482       .  S
C21          O22   1.263       .  A
C21        C2889   1.489       .  S
O23          C38   1.265       .  A
O23         Al31   1.911       .  S
C24          O34   1.260       .  A
C24          O25   1.258       .  A
C24        C2804   1.476       .  S
O25         Al27   1.887       .  S
O26          C28   1.260       .  A
O26         Al27   1.921       .  S
Al27         O35   1.909       .  S
Al27         O37   1.896       .  S
Al27         O36   1.791       .  S
C28          O41   1.258       .  A
C28        C2769   1.487       .  S
O29          C39   1.263       .  A
O29         Al31   1.918       .  S
O30          C43   1.264       .  A
O30         Al40   1.916       .  S
Al31         O44   1.904       .  S
Al31         O41   1.904       .  S
Al31         O36   1.794       .  S
O32          C39   1.257       .  A
O32         Al40   1.881       .  S
O33          C42   1.258       .  A
O33         Al40   1.892       .  S
O34         Al40   1.904       .  S
O35          C42   1.262       .  A
O36         Al40   1.792       .  S
O37          C38   1.262       .  A
C38        C2756   1.476   1_565  S
C39        C2841   1.462       .  S
C42        C2972   1.481       .  S
C43          O44   1.261       .  A
C43        C2817   1.487       .  S
O45          C60   1.261       .  A
O45         Al53   1.886       .  S
C46          O56   1.260       .  A
C46          O47   1.264       .  A
C46        C2948   1.478       .  S
O47         Al49   1.922   1_556  S
O48          C50   1.262       .  A
O48         Al49   1.915   1_556  S
Al49         O57   1.926       .  S
Al49         O59   1.923       .  S
Al49         O58   1.796       .  S
C50          O63   1.260   1_556  A
C50        C2660   1.489       .  S
O51          C61   1.259       .  A
O51         Al53   1.910       .  S
O52          C65   1.263       .  A
O52         Al62   1.907       .  S
Al53         O66   1.913       .  S
Al53         O63   1.906       .  S
Al53         O58   1.790       .  S
O54          C61   1.255       .  A
O54         Al62   1.881       .  S
O55          C64   1.256       .  A
O55         Al62   1.879       .  S
O56         Al62   1.887   1_556  S
O57          C64   1.264       .  A
O58         Al62   1.785       .  S
O59          C60   1.266       .  A
C60        C2636   1.482   1_565  S
C61        C2732   1.457       .  S
C64        C2673   1.482       .  S
C65          O66   1.264       .  A
C65        C2708   1.484       .  S
O67          C82   1.260       .  A
O67         Al75   1.901       .  S
C68          O78   1.261       .  A
C68          O69   1.259       .  A
C68        C2793   1.475       .  S
O69         Al71   1.895   1_556  S
O70          C72   1.262       .  A
O70         Al71   1.911   1_556  S
Al71         O79   1.926       .  S
Al71         O81   1.888       .  S
Al71         O80   1.796       .  S
C72          O85   1.261   1_556  A
C72        C2601   1.487       .  S
O73          C83   1.257       .  A
O73         Al75   1.912       .  S
O74          C87   1.265       .  A
O74         Al84   1.908       .  S
Al75         O88   1.908       .  S
Al75         O85   1.904       .  S
Al75         O80   1.795       .  S
O76          C83   1.252       .  A
O76         Al84   1.868       .  S
O77          C86   1.257       .  A
O77         Al84   1.883       .  S
O78         Al84   1.900   1_556  S
O79          C86   1.264       .  A
O80         Al84   1.789       .  S
O81          C82   1.258       .  A
C82        C2529   1.477       .  S
C83        C2577   1.459       .  S
C86        C2684   1.484       .  S
C87          O88   1.264       .  A
C87        C2553   1.483       .  S
O89         C104   1.264       .  A
O89         Al97   1.896       .  S
C90         O100   1.259       .  A
C90          O91   1.268       .  A
C90        C2457   1.482       .  S
O91         Al93   1.938       .  S
O92          C94   1.254       .  A
O92         Al93   1.868       .  S
Al93        O101   1.891       .  S
Al93        O103   1.940       .  S
Al93        O102   1.772       .  S
C94         O107   1.267       .  A
C94        C2852   1.476       .  S
O95         C105   1.263       .  A
O95         Al97   1.906       .  S
O96         C109   1.263       .  A
O96        Al106   1.886       .  S
Al97        O110   1.945       .  S
Al97        O107   1.947       .  S
Al97        O102   1.785       .  S
O98         C105   1.266       .  A
O98        Al106   1.922       .  S
O99         C108   1.266       .  A
O99        Al106   1.934       .  S
O100       Al106   1.880       .  S
O101        C108   1.260       .  A
O102       Al106   1.775       .  S
O103        C104   1.270       .  A
C104       C2612   1.487       .  S
C105       C2516   1.483       .  S
C108       C2481   1.486       .  S
C109        O110   1.270       .  A
C109       C2433   1.483       .  S
O111        C126   1.263       .  A
O111       Al119   1.912       .  S
C112        O122   1.262       .  A
C112        O113   1.264       .  A
C112       C2337   1.482       .  S
O113       Al115   1.922       .  S
O114        C116   1.256       .  A
O114       Al115   1.871       .  S
Al115       O123   1.893       .  S
Al115       O125   1.926       .  S
Al115       O124   1.775       .  S
C116        O129   1.266       .  A
C116       C2372   1.464       .  S
O117        C127   1.263       .  A
O117       Al119   1.912       .  S
O118        C131   1.265       .  A
O118       Al128   1.896       .  S
Al119       O132   1.926       .  S
Al119       O129   1.938       .  S
Al119       O124   1.785       .  S
O120        C127   1.263       .  A
O120       Al128   1.919       .  S
O121        C130   1.267       .  A
O121       Al128   1.935       .  S
O122       Al128   1.901       .  S
O123        C130   1.261       .  A
O124       Al128   1.780       .  S
O125        C126   1.265       .  A
C126       C2396   1.492       .  S
C127       C2409   1.489       .  S
C130       C2492   1.485       .  S
C131        O132   1.268       .  A
C131       C2313   1.482       .  S
O133        C148   1.265       .  A
O133       Al141   1.907       .  S
C134        O144   1.259       .  A
C134        O135   1.265       .  A
C134       C2468   1.484       .  S
O135       Al137   1.934       .  S
O136        C138   1.256       .  A
O136       Al137   1.875       .  S
Al137       O145   1.886       .  S
Al137       O147   1.934       .  S
Al137       O146   1.773       .  S
C138        O151   1.264       .  A
C138       C2300   1.461       .  S
O139        C149   1.262       .  A
O139       Al141   1.899       .  S
O140        C153   1.262       .  A
O140       Al150   1.893       .  S
Al141       O154   1.934       .  S
Al141       O151   1.936       .  S
Al141       O146   1.784       .  S
O142        C149   1.269       .  A
O142       Al150   1.942       .  S
O143        C152   1.270       .  A
O143       Al150   1.950       .  S
O144       Al150   1.886       .  S
O145        C152   1.260       .  A
O146       Al150   1.777       .  S
O147        C148   1.269       .  A
C148       C2265   1.489       .  S
C149       C2828   1.487       .  S
C152       C2241   1.489       .  S
C153        O154   1.268       .  A
C153       C2217   1.484       .  S
O155        C170   1.263       .  A
O155       Al163   1.907       .  S
C156        O166   1.261       .  A
C156        O157   1.266       .  A
C156       C2348   1.482       .  S
O157       Al159   1.928       .  S
O158        C160   1.256       .  A
O158       Al159   1.868       .  S
Al159       O167   1.904       .  S
Al159       O169   1.935       .  S
Al159       O168   1.779       .  S
C160        O173   1.265       .  A
C160       C2193   1.466       .  S
O161        C171   1.261       .  A
O161       Al163   1.908       .  S
O162        C175   1.263       .  A
O162       Al172   1.888       .  S
Al163       O176   1.931       .  S
Al163       O173   1.930       .  S
Al163       O168   1.785       .  S
O164        C171   1.264       .  A
O164       Al172   1.928       .  S
O165        C174   1.267       .  A
O165       Al172   1.932       .  S
O166       Al172   1.893       .  S
O167        C174   1.263       .  A
O168       Al172   1.779       .  S
O169        C170   1.267       .  A
C170       C2169   1.495       .  S
C171       C2145   1.492       .  S
C174       C2252   1.488       .  S
C175        O176   1.269       .  A
C175       C2121   1.479       .  S
O177        C192   1.263       .  A
O177       Al185   1.900       .  S
C178        O188   1.259       .  A
C178        O179   1.266       .  A
C178       C2049   1.480       .  S
O179       Al181   1.932       .  S
O180        C182   1.255       .  A
O180       Al181   1.873       .  S
Al181       O189   1.886       .  S
Al181       O191   1.943       .  S
Al181       O190   1.771       .  S
C182        O195   1.266       .  A
C182       C2924   1.473       .  S
O183        C193   1.263       .  A
O183       Al185   1.894       .  S
O184        C197   1.262       .  A
O184       Al194   1.890       .  S
Al185       O198   1.929       .  S
Al185       O195   1.942       .  S
Al185       O190   1.780       .  S
O186        C193   1.270       .  A
O186       Al194   1.942       .  S
O187        C196   1.269       .  A
O187       Al194   1.946       .  S
O188       Al194   1.882       .  S
O189        C196   1.260       .  A
O190       Al194   1.776       .  S
O191        C192   1.269       .  A
C192       C2649   1.483       .  S
C193       C2108   1.486       .  S
C196       C2073   1.487       .  S
C197        O198   1.267       .  A
C197       C2025   1.478       .  S
O199        C214   1.262       .  A
O199       Al207   1.897       .  S
C200        O210   1.259       .  A
C200        O201   1.267       .  A
C200       C1977   1.479       .  S
O201       Al203   1.933       .  S
O202        C204   1.254       .  A
O202       Al203   1.871       .  S
Al203       O211   1.892       .  S
Al203       O213   1.943       .  S
Al203       O212   1.774       .  S
C204        O217   1.263       .  A
C204       C1929   1.462       .  S
O205        C215   1.262       .  A
O205       Al207   1.903       .  S
O206        C219   1.262       .  A
O206       Al216   1.888       .  S
Al207       O220   1.917       .  S
Al207       O217   1.927       .  S
Al207       O212   1.783       .  S
O208        C215   1.267       .  A
O208       Al216   1.937       .  S
O209        C218   1.267       .  A
O209       Al216   1.939       .  S
O210       Al216   1.881       .  S
O211        C218   1.260       .  A
O212       Al216   1.780       .  S
O213        C214   1.269       .  A
C214       C1953   1.491       .  S
C215       C2001   1.491   1_545  S
C218       C2084   1.488       .  S
C219        O220   1.266       .  A
C219       C1905   1.474   1_545  S
O221        C236   1.265       .  A
O221       Al229   1.908       .  S
C222        O232   1.258       .  A
C222        O223   1.265       .  A
C222       C2060   1.479       .  S
O223       Al225   1.929       .  S
O224        C226   1.255       .  A
O224       Al225   1.871       .  S
Al225       O233   1.891       .  S
Al225       O235   1.940       .  S
Al225       O234   1.774       .  S
C226        O239   1.264       .  A
C226       C1881   1.467       .  S
O227        C237   1.262       .  A
O227       Al229   1.900       .  S
O228        C241   1.262       .  A
O228       Al238   1.893       .  S
Al229       O242   1.926       .  S
Al229       O239   1.933       .  S
Al229       O234   1.782       .  S
O230        C237   1.269       .  A
O230       Al238   1.944       .  S
O231        C240   1.270       .  A
O231       Al238   1.950       .  S
O232       Al238   1.881       .  S
O233        C240   1.262       .  A
O234       Al238   1.778       .  S
O235        C236   1.268       .  A
C236       C1857   1.488       .  S
C237       C2900   1.491   1_545  S
C240       C1844   1.491       .  S
C241        O242   1.267       .  A
C241       C1820   1.480   1_545  S
O243        C258   1.265       .  A
O243       Al251   1.905       .  S
C244        O254   1.258       .  A
C244        O245   1.266       .  A
C244       C1988   1.481       .  S
O245       Al247   1.935       .  S
O246        C248   1.255       .  A
O246       Al247   1.875       .  S
Al247       O255   1.890       .  S
Al247       O257   1.941       .  S
Al247       O256   1.775       .  S
C248        O261   1.263       .  A
C248       C1785   1.469       .  S
O249        C259   1.263       .  A
O249       Al251   1.901       .  S
O250        C263   1.263       .  A
O250       Al260   1.894       .  S
Al251       O264   1.921       .  S
Al251       O261   1.927       .  S
Al251       O256   1.786       .  S
O252        C259   1.268       .  A
O252       Al260   1.938       .  S
O253        C262   1.268       .  A
O253       Al260   1.946       .  S
O254       Al260   1.877       .  S
O255        C262   1.260       .  A
O256       Al260   1.782       .  S
O257        C258   1.269       .  A
C258       C1761   1.493       .  S
C259       C1737   1.489       .  S
C262       C1833   1.490       .  S
C263        O264   1.266       .  A
C263       C1713   1.480       .  S
O265        C280   1.261       .  A
O265       Al273   1.886       .  S
C266        O276   1.260       .  A
C266        O267   1.267       .  A
C266       C1628   1.480       .  S
O267       Al269   1.933       .  S
O268        C270   1.254       .  A
O268       Al269   1.869       .  S
Al269       O277   1.886       .  S
Al269       O279   1.953       .  S
Al269       O278   1.773       .  S
C270        O283   1.266       .  A
C270       C1689   1.465       .  S
O271        C281   1.262       .  A
O271       Al273   1.893       .  S
O272        C285   1.262       .  A
O272       Al282   1.891       .  S
Al273       O286   1.931       .  S
Al273       O283   1.945       .  S
Al273       O278   1.777       .  S
O274        C281   1.268       .  A
O274       Al282   1.939       .  S
O275        C284   1.268       .  A
O275       Al282   1.938       .  S
O276       Al282   1.886       .  S
O277        C284   1.260       .  A
O278       Al282   1.777       .  S
O279        C280   1.270       .  A
C280       C1665   1.488       .  S
C281       C2697   1.485       .  S
C284       C1641   1.483       .  S
C285        O286   1.268       .  A
C285       C1809   1.481       .  S
O287        C302   1.261       .  A
O287       Al295   1.889       .  S
C288        O298   1.260       .  A
C288        O289   1.267       .  A
C288       C1604   1.480       .  S
O289       Al291   1.932       .  S
O290        C292   1.255       .  A
O290       Al291   1.871       .  S
Al291       O299   1.887       .  S
Al291       O301   1.939       .  S
Al291       O300   1.771       .  S
C292        O305   1.267       .  A
C292       C1521   1.467       .  S
O293        C303   1.262       .  A
O293       Al295   1.898       .  S
O294        C307   1.261       .  A
O294       Al304   1.886       .  S
Al295       O308   1.938       .  S
Al295       O305   1.948       .  S
Al295       O300   1.781       .  S
O296        C303   1.267       .  A
O296       Al304   1.930       .  S
O297        C306   1.267       .  A
O297       Al304   1.935       .  S
O298       Al304   1.885       .  S
O299        C306   1.259       .  A
O300       Al304   1.774       .  S
O301        C302   1.268       .  A
C302       C1556   1.485       .  S
C303       C1580   1.484       .  S
C306       C1652   1.482       .  S
C307        O308   1.269       .  A
C307       C1724   1.480       .  S
O309        C324   1.263       .  A
O309       Al317   1.898       .  S
C310        O320   1.259   1_554  A
C310        O311   1.267   1_554  A
C310       C1617   1.482       .  S
O311       Al313   1.938       .  S
O312        C314   1.255       .  A
O312       Al313   1.868       .  S
Al313       O321   1.887       .  S
Al313       O323   1.938       .  S
Al313       O322   1.774       .  S
C314        O327   1.266       .  A
C314       C2721   1.473       .  S
O315        C325   1.263       .  A
O315       Al317   1.909       .  S
O316        C329   1.263       .  A
O316       Al326   1.887       .  S
Al317       O330   1.935       .  S
Al317       O327   1.940       .  S
Al317       O322   1.783       .  S
O318        C325   1.266       .  A
O318       Al326   1.926       .  S
O319        C328   1.266       .  A
O319       Al326   1.937       .  S
O320       Al326   1.881       .  S
O321        C328   1.259       .  A
O322       Al326   1.777       .  S
O323        C324   1.268       .  A
C324       C2996   1.489       .  S
C325       C1508   1.488   1_556  S
C328       C1473   1.484       .  S
C329        O330   1.269       .  A
C329       C2036   1.480       .  S
O331        C346   1.263       .  A
O331       Al339   1.904       .  S
C332        O342   1.260   1_554  A
C332        O333   1.266   1_554  A
C332       C1593   1.479       .  S
O333       Al335   1.931       .  S
O334        C336   1.255       .  A
O334       Al335   1.870       .  S
Al335       O343   1.897       .  S
Al335       O345   1.930       .  S
Al335       O344   1.773       .  S
C336        O349   1.266       .  A
C336       C1436   1.464       .  S
O337        C347   1.263       .  A
O337       Al339   1.908       .  S
O338        C351   1.261       .  A
O338       Al348   1.882       .  S
Al339       O352   1.930       .  S
Al339       O349   1.938       .  S
Al339       O344   1.784       .  S
O340        C347   1.264       .  A
O340       Al348   1.925       .  S
O341        C350   1.265       .  A
O341       Al348   1.928       .  S
O342       Al348   1.884       .  S
O343        C350   1.261       .  A
O344       Al348   1.776       .  S
O345        C346   1.267       .  A
C346       C1460   1.490       .  S
C347       C1412   1.488   1_556  S
C350       C1484   1.484       .  S
C351        O352   1.269       .  A
C351       C1916   1.472       .  S
O353        C368   1.268       .  A
O353       Al361   1.924       .  S
C354        O364   1.264       .  A
C354        O355   1.260       .  A
C354       C1353   1.477       .  S
O355       Al357   1.891       .  S
O356        C358   1.267       .  A
O356       Al357   1.946       .  S
Al357       O365   1.951       .  S
Al357       O367   1.885       .  S
Al357       O366   1.780       .  S
C358        O371   1.261       .  A
C358       C2180   1.496       .  S
O359        C369   1.265       .  A
O359       Al361   1.930       .  S
O360        C373   1.266       .  A
O360       Al370   1.930       .  S
Al361       O374   1.909       .  S
Al361       O371   1.900       .  S
Al361       O366   1.784       .  S
O362        C369   1.256       .  A
O362       Al370   1.869       .  S
O363        C372   1.262       .  A
O363       Al370   1.892       .  S
O364       Al370   1.926       .  S
O365        C372   1.270       .  A
O366       Al370   1.776       .  S
O367        C368   1.262       .  A
C368       C1281   1.477       .  S
C369       C1316   1.462       .  S
C372       C1377   1.491       .  S
C373        O374   1.263       .  A
C373       C1329   1.493       .  S
O375        C390   1.263       .  A
O375       Al383   1.900       .  S
C376        O386   1.263       .  A
C376        O377   1.264       .  A
C376       C1257   1.478       .  S
O377       Al379   1.910       .  S
O378        C380   1.261       .  A
O378       Al379   1.912       .  S
Al379       O387   1.924       .  S
Al379       O389   1.903       .  S
Al379       O388   1.793       .  S
C380        O393   1.260       .  A
C380       C1772   1.492   1_565  S
O381        C391   1.259       .  A
O381       Al383   1.916       .  S
O382        C395   1.266       .  A
O382       Al392   1.908       .  S
Al383       O396   1.928       .  S
Al383       O393   1.910       .  S
Al383       O388   1.794       .  S
O384        C391   1.254       .  A
O384       Al392   1.884       .  S
O385        C394   1.256       .  A
O385       Al392   1.892       .  S
O386       Al392   1.897       .  S
O387        C394   1.262       .  A
O388       Al392   1.790       .  S
O389        C390   1.264       .  A
C390       C1233   1.482   1_565  S
C391       C1532   1.459       .  S
C394       C1388   1.490       .  S
C395        O396   1.267       .  A
C395       C1401   1.489       .  S
O397        C412   1.267       .  A
O397       Al405   1.920       .  S
C398        O408   1.264       .  A
C398        O399   1.259       .  A
C398       C1364   1.478       .  S
O399       Al401   1.885       .  S
O400        C402   1.268       .  A
O400       Al401   1.949       .  S
Al401       O409   1.961       .  S
Al401       O411   1.894       .  S
Al401       O410   1.783       .  S
C402        O415   1.261       .  A
C402       C1185   1.494       .  S
O403        C413   1.265       .  A
O403       Al405   1.931       .  S
O404        C417   1.265       .  A
O404       Al414   1.922       .  S
Al405       O418   1.905       .  S
Al405       O415   1.894       .  S
Al405       O410   1.781       .  S
O406        C413   1.256       .  A
O406       Al414   1.870       .  S
O407        C416   1.258       .  A
O407       Al414   1.880       .  S
O408       Al414   1.926       .  S
O409        C416   1.271       .  A
O410       Al414   1.773       .  S
O411        C412   1.264       .  A
C412       C1161   1.480   1_565  S
C413       C2204   1.469       .  S
C416       C1209   1.489       .  S
C417        O418   1.263       .  A
C417       C2420   1.486       .  S
O419        C434   1.265       .  A
O419       Al427   1.921       .  S
C420        O430   1.264       .  A
C420        O421   1.257       .  A
C420       C1268   1.479       .  S
O421       Al423   1.880       .  S
O422        C424   1.269       .  A
O422       Al423   1.936       .  S
Al423       O431   1.944       .  S
Al423       O433   1.891       .  S
Al423       O432   1.779       .  S
C424        O437   1.263       .  A
C424       C1545   1.485       .  S
O425        C435   1.264       .  A
O425       Al427   1.930       .  S
O426        C439   1.269       .  A
O426       Al436   1.935       .  S
Al427       O440   1.906       .  S
Al427       O437   1.896       .  S
Al427       O432   1.785       .  S
O428        C435   1.255       .  A
O428       Al436   1.877       .  S
O429        C438   1.259       .  A
O429       Al436   1.882       .  S
O430       Al436   1.928       .  S
O431        C438   1.268       .  A
O432       Al436   1.772       .  S
O433        C434   1.262       .  A
C434       C1137   1.479       .  S
C435       C1796   1.470       .  S
C438       C1220   1.487       .  S
C439        O440   1.265       .  A
C439       C2012   1.490       .  S
O441        C456   1.261       .  A
O441       Al449   1.897       .  S
C442        O452   1.263       .  A
C442        O443   1.263       .  A
C442       C1089   1.479       .  S
O443       Al445   1.908       .  S
O444        C446   1.261       .  A
O444       Al445   1.909       .  S
Al445       O453   1.924       .  S
Al445       O455   1.907       .  S
Al445       O454   1.788       .  S
C446        O459   1.263       .  A
C446       C1868   1.488       .  S
O447        C457   1.258       .  A
O447       Al449   1.913       .  S
O448        C461   1.265       .  A
O448       Al458   1.901       .  S
Al449       O462   1.932       .  S
Al449       O459   1.917       .  S
Al449       O454   1.790       .  S
O450        C457   1.253       .  A
O450       Al458   1.878       .  S
O451        C460   1.257       .  A
O451       Al458   1.882       .  S
O452       Al458   1.903       .  S
O453        C460   1.264       .  A
O454       Al458   1.783       .  S
O455        C456   1.262       .  A
C456       C2625   1.479       .  S
C457       C1700   1.456       .  S
C460       C1124   1.481       .  S
C461        O462   1.269       .  A
C461       C1497   1.487       .  S
O463        C478   1.263       .  A
O463       Al471   1.899       .  S
C464        O474   1.261       .  A
C464        O465   1.262       .  A
C464       C1017   1.480       .  S
O465       Al467   1.907       .  S
O466        C468   1.262       .  A
O466       Al467   1.911       .  S
Al467       O475   1.915       .  S
Al467       O477   1.909       .  S
Al467       O476   1.783       .  S
C468        O481   1.263       .  A
C468       C2276   1.486       .  S
O469        C479   1.261       .  A
O469       Al471   1.910       .  S
O470        C483   1.262       .  A
O470       Al480   1.904       .  S
Al471       O484   1.924       .  S
Al471       O481   1.923       .  S
Al471       O476   1.786       .  S
O472        C479   1.259       .  A
O472       Al480   1.888       .  S
O473        C482   1.260       .  A
O473       Al480   1.891       .  S
O474       Al480   1.901       .  S
O475        C482   1.264       .  A
O476       Al480   1.782       .  S
O477        C478   1.264       .  A
C478       C2540   1.475       .  S
C479       C1041   1.455       .  S
C482       C1113   1.481       .  S
C483        O484   1.265       .  A
C483       C1076   1.487       .  S
O485        C500   1.267       .  A
O485       Al493   1.934       .  S
C486        O496   1.266       .  A
C486        O487   1.256       .  A
C486       C1100   1.479       .  S
O487       Al489   1.870       .  S
O488        C490   1.272       .  A
O488       Al489   1.959       .  S
Al489       O497   1.956       .  S
Al489       O499   1.883       .  S
Al489       O498   1.775       .  S
C490        O503   1.260       .  A
C490       C1676   1.489       .  S
O491        C501   1.266       .  A
O491       Al493   1.936       .  S
O492        C505   1.269       .  A
O492       Al502   1.939       .  S
Al493       O506   1.895       .  S
Al493       O503   1.877       .  S
Al493       O498   1.779       .  S
O494        C501   1.255       .  A
O494       Al502   1.869       .  S
O495        C504   1.257       .  A
O495       Al502   1.872       .  S
O496       Al502   1.938       .  S
O497        C504   1.271       .  A
O498       Al502   1.769       .  S
O499        C500   1.259       .  A
C500       C2876   1.475       .  S
C501       C1892   1.468       .  S
C504        C993   1.483       .  S
C505        O506   1.263       .  A
C505       C2097   1.485       .  S
O507        C522   1.264       .  A
O507       Al515   1.896       .  S
C508        O518   1.261       .  A
C508        O509   1.264       .  A
C508       C1028   1.479       .  S
O509       Al511   1.917       .  S
O510        C512   1.260       .  A
O510       Al511   1.911       .  S
Al511       O519   1.923       .  S
Al511       O521   1.921       .  S
Al511       O520   1.786       .  S
C512        O525   1.259       .  A
C512        C969   1.479       .  S
O513        C523   1.259       .  A
O513       Al515   1.913       .  S
O514        C527   1.262       .  A
O514       Al524   1.898       .  S
Al515       O528   1.924       .  S
Al515       O525   1.904       .  S
Al515       O520   1.785       .  S
O516        C523   1.257       .  A
O516       Al524   1.889       .  S
O517        C526   1.257       .  A
O517       Al524   1.882       .  S
O518       Al524   1.889       .  S
O519        C526   1.264       .  A
O520       Al524   1.781       .  S
O521        C522   1.267       .  A
C522       C2745   1.483       .  S
C523       C2289   1.457       .  S
C526       C1004   1.479       .  S
C527        O528   1.266       .  A
C527       C2505   1.483       .  S
O529        C544   1.265       .  A
O529       Al537   1.900       .  S
C530        O540   1.259       .  A
C530        O531   1.264       .  A
C530        C932   1.482       .  S
O531       Al533   1.927       .  S
O532        C534   1.255       .  A
O532       Al533   1.873       .  S
Al533       O541   1.877       .  S
Al533       O543   1.932       .  S
Al533       O542   1.767       .  S
C534        O547   1.266       .  A
C534       C1052   1.463       .  S
O535        C545   1.262       .  A
O535       Al537   1.888       .  S
O536        C549   1.262       .  A
O536       Al546   1.895       .  S
Al537       O550   1.937       .  S
Al537       O547   1.949       .  S
Al537       O542   1.780       .  S
O538        C545   1.270       .  A
O538       Al546   1.945       .  S
O539        C548   1.271       .  A
O539       Al546   1.956       .  S
O540       Al546   1.890       .  S
O541        C548   1.259       .  A
O542       Al546   1.775       .  S
O543        C544   1.268       .  A
C544        C980   1.483       .  S
C545       C2564   1.484   1_545  S
C548        C956   1.487       .  S
C549        O550   1.268       .  A
C549       C2228   1.485   1_545  S
O551        C566   1.261       .  A
O551       Al559   1.889       .  S
C552        O562   1.258       .  A
C552        O553   1.267       .  A
C552        C897   1.481       .  S
O553       Al555   1.938       .  S
O554        C556   1.254       .  A
O554       Al555   1.866       .  S
Al555       O563   1.889       .  S
Al555       O565   1.957       .  S
Al555       O564   1.774       .  S
C556        O569   1.265       .  A
C556       C1305   1.464       .  S
O557        C567   1.261       .  A
O557       Al559   1.892       .  S
O558        C571   1.263       .  A
O558       Al568   1.891       .  S
Al559       O572   1.924       .  S
Al559       O569   1.935       .  S
Al559       O564   1.778       .  S
O560        C567   1.268       .  A
O560       Al568   1.941       .  S
O561        C570   1.269       .  A
O561       Al568   1.943       .  S
O562       Al568   1.879       .  S
O563        C570   1.261       .  A
O564       Al568   1.779       .  S
O565        C566   1.271       .  A
C566       C1196   1.493       .  S
C567        C873   1.487       .  S
C570        C945   1.487       .  S
C571        O572   1.267       .  A
C571       C2132   1.478       .  S
O573        C588   1.265       .  A
O573       Al581   1.906       .  S
C574        O584   1.260   1_554  A
C574        O575   1.265   1_554  A
C574        C921   1.483       .  S
O575       Al577   1.930       .  S
O576        C578   1.256       .  A
O576       Al577   1.875       .  S
Al577       O585   1.896       .  S
Al577       O587   1.936       .  S
Al577       O586   1.778       .  S
C578        O591   1.264       .  A
C578       C2588   1.472       .  S
O579        C589   1.263       .  A
O579       Al581   1.906       .  S
O580        C593   1.265       .  A
O580       Al590   1.904       .  S
Al581       O594   1.922       .  S
Al581       O591   1.931       .  S
Al581       O586   1.784       .  S
O582        C589   1.267       .  A
O582       Al590   1.928       .  S
O583        C592   1.268       .  A
O583       Al590   1.940       .  S
O584       Al590   1.888       .  S
O585        C592   1.261       .  A
O586       Al590   1.778       .  S
O587        C588   1.268       .  A
C588       C2780   1.490       .  S
C589       C1065   1.488   1_556  S
C592        C849   1.490       .  S
C593        O594   1.266       .  A
C593       C2444   1.484       .  S
O595        C610   1.263       .  A
O595       Al603   1.902       .  S
C596        O606   1.260   1_554  A
C596        O597   1.265   1_554  A
C596        C908   1.481       .  S
O597       Al599   1.929       .  S
O598        C600   1.255       .  A
O598       Al599   1.871       .  S
Al599       O607   1.892       .  S
Al599       O609   1.934       .  S
Al599       O608   1.776       .  S
C600        O613   1.266       .  A
C600        C801   1.462       .  S
O601        C611   1.263       .  A
O601       Al603   1.910       .  S
O602        C615   1.261   1_545  A
O602       Al612   1.882       .  S
Al603       O616   1.939       .  S
Al603       O613   1.941       .  S
Al603       O608   1.788       .  S
O604        C611   1.267   1_565  A
O604       Al612   1.933   1_565  S
O605        C614   1.268       .  A
O605       Al612   1.942       .  S
O606       Al612   1.888       .  S
O607        C614   1.260       .  A
O608       Al612   1.777       .  S
O609        C610   1.267       .  A
C610        C825   1.488       .  S
C611       C1340   1.493   1_546  S
C614        C860   1.488       .  S
C615        O616   1.269   1_565  A
C615       C2324   1.481       .  S
O617        C632   1.264       .  A
O617       Al625   1.901       .  S
C618        O628   1.260       .  A
C618        O619   1.263       .  A
C618        C753   1.475       .  S
O619       Al621   1.913       .  S
O620        C622   1.259       .  A
O620       Al621   1.904       .  S
Al621       O629   1.910       .  S
Al621       O631   1.905       .  S
Al621       O630   1.789       .  S
C622        O635   1.260       .  A
C622        C836   1.489       .  S
O623        C633   1.259       .  A
O623       Al625   1.910       .  S
O624        C637   1.265       .  A
O624       Al634   1.909       .  S
Al625       O638   1.929       .  S
Al625       O635   1.915       .  S
Al625       O630   1.792       .  S
O626        C633   1.257       .  A
O626       Al634   1.889       .  S
O627        C636   1.259       .  A
O627       Al634   1.903       .  S
O628       Al634   1.892       .  S
O629        C636   1.261       .  A
O630       Al634   1.786       .  S
O631        C632   1.265       .  A
C632       C1172   1.479       .  S
C633       C2361   1.456       .  S
C636        C788   1.485       .  S
C637        O638   1.267       .  A
C637       C2156   1.491       .  S
O639        C654   1.269       .  A
O639       Al647   1.931       .  S
C640        O650   1.266       .  A
C640        O641   1.261       .  A
C640        C729   1.478       .  S
O641       Al643   1.886       .  S
O642        C644   1.265       .  A
O642       Al643   1.931       .  S
Al643       O651   1.930       .  S
Al643       O653   1.885       .  S
Al643       O652   1.780       .  S
C644        O657   1.261       .  A
C644       C1449   1.490       .  S
O645        C655   1.264       .  A
O645       Al647   1.929       .  S
O646        C659   1.266       .  A
O646       Al656   1.930       .  S
Al647       O660   1.902       .  S
Al647       O657   1.902       .  S
Al647       O652   1.786       .  S
O648        C655   1.255       .  A
O648       Al656   1.868       .  S
O649        C658   1.261       .  A
O649       Al656   1.896       .  S
O650       Al656   1.927       .  S
O651        C658   1.266       .  A
O652       Al656   1.777       .  S
O653        C654   1.262       .  A
C654       C1148   1.479       .  S
C655       C1940   1.465       .  S
C658        C777   1.485       .  S
C659        O660   1.262       .  A
C659       C1748   1.490       .  S
O661        C676   1.263       .  A
O661       Al669   1.892       .  S
C662        O672   1.263       .  A
C662        O663   1.264       .  A
C662        C764   1.477       .  S
O663       Al665   1.912   1_556  S
O664        C666   1.260   1_556  A
O664       Al665   1.915   1_556  S
Al665       O673   1.926       .  S
Al665       O675   1.911       .  S
Al665       O674   1.789       .  S
C666        O679   1.259       .  A
C666       C2385   1.488   1_554  S
O667        C677   1.261       .  A
O667       Al669   1.921       .  S
O668        C681   1.267       .  A
O668       Al678   1.912       .  S
Al669       O682   1.922       .  S
Al669       O679   1.914       .  S
Al669       O674   1.789       .  S
O670        C677   1.255       .  A
O670       Al678   1.882       .  S
O671        C680   1.256       .  A
O671       Al678   1.889       .  S
O672       Al678   1.895   1_556  S
O673        C680   1.263       .  A
O674       Al678   1.784       .  S
O675        C676   1.266       .  A
C676       C1292   1.478       .  S
C677        C812   1.458       .  S
C680        C705   1.488       .  S
C681        O682   1.267       .  A
C681        C884   1.487       .  S
O683        C698   1.263       .  A
O683       Al691   1.899       .  S
C684        O694   1.263   1_556  A
C684        O685   1.264       .  A
C684        C740   1.478       .  S
O685       Al687   1.911   1_556  S
O686        C688   1.261       .  A
O686       Al687   1.919   1_556  S
Al687       O695   1.926       .  S
Al687       O697   1.906       .  S
Al687       O696   1.796       .  S
C688        O701   1.257   1_556  A
C688       C1964   1.490       .  S
O689        C699   1.259       .  A
O689       Al691   1.917       .  S
O690        C703   1.265       .  A
O690       Al700   1.909       .  S
Al691       O704   1.912       .  S
Al691       O701   1.895       .  S
Al691       O696   1.793       .  S
O692        C699   1.254       .  A
O692       Al700   1.884       .  S
O693        C702   1.254       .  A
O693       Al700   1.881       .  S
O694       Al700   1.896       .  S
O695        C702   1.262       .  A
O696       Al700   1.790       .  S
O697        C698   1.264       .  A
C698       C1244   1.480       .  S
C699       C1425   1.459       .  S
C702        C716   1.487       .  S
C703        O704   1.264       .  A
C703       C1569   1.483       .  S
C705        C706   1.407       .  A
C705        C710   1.405       .  A
C706        C707   1.396       .  A
C706        H719   1.083       .  S
C707        C708   1.402       .  A
C707        H720   1.084       .  S
C708        C709   1.414       .  A
C708        C711   1.496       .  S
C709        C710   1.407       .  A
C709        H721   1.081       .  S
C710        H722   1.083       .  S
C711        C712   1.347       .  D
C711        H723   1.084       .  S
C712        C713   1.497       .  S
C712        H724   1.085       .  S
C713        C714   1.402       .  A
C713        C718   1.414       .  A
C714        C715   1.395       .  A
C714        H725   1.083       .  S
C715        C716   1.407       .  A
C715        H726   1.083       .  S
C716        C717   1.405       .  A
C717        C718   1.408       .  A
C717        H727   1.083       .  S
C718        H728   1.080       .  S
C729        C730   1.405       .  A
C729        C734   1.405       .  A
C730        C731   1.396       .  A
C730        H743   1.083       .  S
C731        C732   1.407       .  A
C731        H744   1.082       .  S
C732        C733   1.404       .  A
C732        C735   1.485       .  S
C733        C734   1.398       .  A
C733        H745   1.083       .  S
C734        H746   1.083       .  S
C735        C736   1.349       .  D
C735        H747   1.084       .  S
C736        C737   1.487       .  S
C736        H748   1.085       .  S
C737        C738   1.405       .  A
C737        C742   1.408       .  A
C738        C739   1.396       .  A
C738        H749   1.084       .  S
C739        C740   1.403       .  A
C739        H750   1.083       .  S
C740        C741   1.406       .  A
C741        C742   1.398       .  A
C741        H751   1.083       .  S
C742        H752   1.081       .  S
C753        C754   1.405       .  A
C753        C758   1.405       .  A
C754        C755   1.397       .  A
C754        H767   1.083       .  S
C755        C756   1.401       .  A
C755        H768   1.083       .  S
C756        C757   1.405       .  A
C756        C759   1.477       .  S
C757        C758   1.397       .  A
C757        H769   1.083       .  S
C758        H770   1.083       .  S
C759        C760   1.344       .  D
C759        H771   1.086       .  S
C760        C761   1.479       .  S
C760        H772   1.087       .  S
C761        C762   1.402       .  A
C761        C766   1.405       .  A
C762        C763   1.397       .  A
C762        H773   1.083       .  S
C763        C764   1.405       .  A
C763        H774   1.083       .  S
C764        C765   1.406       .  A
C765        C766   1.397       .  A
C765        H775   1.083       .  S
C766        H776   1.083       .  S
C777        C778   1.405       .  A
C777        C782   1.408       .  A
C778        C779   1.398       .  A
C778        H791   1.083       .  S
C779        C780   1.404       .  A
C779        H792   1.084       .  S
C780        C781   1.409       .  A
C780        C783   1.492       .  S
C781        C782   1.403       .  A
C781        H793   1.081       .  S
C782        H794   1.083       .  S
C783        C784   1.351       .  D
C783        H795   1.085       .  S
C784        C785   1.495       .  S
C784        H796   1.086       .  S
C785        C786   1.407       .  A
C785        C790   1.408       .  A
C786        C787   1.403       .  A
C786        H797   1.084       .  S
C787        C788   1.405       .  A
C787        H798   1.083       .  S
C788        C789   1.406       .  A
C789        C790   1.399       .  A
C789        H799   1.083       .  S
C790        H800   1.081       .  S
C801        C802   1.402   1_556  A
C801        C806   1.402       .  A
C802        C803   1.396       .  A
C802        H815   1.084       .  S
C803        C804   1.403   1_554  A
C803        H816   1.083       .  S
C804        C805   1.407       .  A
C804        C807   1.480   1_556  S
C805        C806   1.398       .  A
C805        H817   1.082       .  S
C806        H818   1.084       .  S
C807        C808   1.348   1_554  D
C807        H819   1.086       .  S
C808        C809   1.480       .  S
C808        H820   1.086       .  S
C809        C810   1.403       .  A
C809        C814   1.405   1_556  A
C810        C811   1.399       .  A
C810        H821   1.083       .  S
C811        C812   1.402   1_556  A
C811        H822   1.084       .  S
C812        C813   1.401       .  A
C813        C814   1.394       .  A
C813        H823   1.084       .  S
C814        H824   1.083       .  S
C825        C826   1.407       .  A
C825        C830   1.407       .  A
C826        C827   1.403       .  A
C826        H839   1.083       .  S
C827        C828   1.405       .  A
C827        H840   1.083       .  S
C828        C829   1.407       .  A
C828        C831   1.493       .  S
C829        C830   1.401       .  A
C829        H841   1.082       .  S
C830        H842   1.083       .  S
C831        C832   1.351       .  D
C831        H843   1.086       .  S
C832        C833   1.493       .  S
C832        H844   1.086       .  S
C833        C834   1.405       .  A
C833        C838   1.408       .  A
C834        C835   1.401       .  A
C834        H845   1.083       .  S
C835        C836   1.406       .  A
C835        H846   1.083       .  S
C836        C837   1.408       .  A
C837        C838   1.403       .  A
C837        H847   1.083       .  S
C838        H848   1.082       .  S
C849        C850   1.406       .  A
C849        C854   1.409       .  A
C850        C851   1.400       .  A
C850        H863   1.083       .  S
C851        C852   1.405       .  A
C851        H864   1.084       .  S
C852        C853   1.408       .  A
C852        C855   1.494       .  S
C853        C854   1.404       .  A
C853        H865   1.082       .  S
C854        H866   1.083       .  S
C855        C856   1.352       .  D
C855        H867   1.085       .  S
C856        C857   1.494       .  S
C856        H868   1.085       .  S
C857        C858   1.406       .  A
C857        C862   1.407       .  A
C858        C859   1.402       .  A
C858        H869   1.083       .  S
C859        C860   1.406       .  A
C859        H870   1.083       .  S
C860        C861   1.408       .  A
C861        C862   1.401       .  A
C861        H871   1.083       .  S
C862        H872   1.082       .  S
C873        C874   1.405       .  A
C873        C878   1.407       .  A
C874        C875   1.401       .  A
C874        H887   1.083       .  S
C875        C876   1.407       .  A
C875        H888   1.083       .  S
C876        C877   1.409       .  A
C876        C879   1.496       .  S
C877        C878   1.401       .  A
C877        H889   1.079       .  S
C878        H890   1.083       .  S
C879        C880   1.353       .  D
C879        H891   1.085       .  S
C880        C881   1.493       .  S
C880        H892   1.083       .  S
C881        C882   1.406       .  A
C881        C886   1.406       .  A
C882        C883   1.403       .  A
C882        H893   1.083       .  S
C883        C884   1.406       .  A
C883        H894   1.083       .  S
C884        C885   1.408       .  A
C885        C886   1.398       .  A
C885        H895   1.083       .  S
C886        H896   1.082       .  S
C897        C898   1.406       .  A
C897        C902   1.404       .  A
C898        C899   1.396       .  A
C898        H911   1.083       .  S
C899        C900   1.403       .  A
C899        H912   1.084       .  S
C900        C901   1.410       .  A
C900        C903   1.489       .  S
C901        C902   1.400       .  A
C901        H913   1.080       .  S
C902        H914   1.083       .  S
C903        C904   1.348       .  D
C903        H915   1.084       .  S
C904        C905   1.489       .  S
C904        H916   1.084       .  S
C905        C906   1.409       .  A
C905        C910   1.403       .  A
C906        C907   1.400       .  A
C906        H917   1.081       .  S
C907        C908   1.405       .  A
C907        H918   1.083       .  S
C908        C909   1.405       .  A
C909        C910   1.397       .  A
C909        H919   1.083       .  S
C910        H920   1.083       .  S
C921        C922   1.405       .  A
C921        C926   1.406       .  A
C922        C923   1.397       .  A
C922        H935   1.083       .  S
C923        C924   1.404       .  A
C923        H936   1.083       .  S
C924        C925   1.409       .  A
C924        C927   1.491       .  S
C925        C926   1.401       .  A
C925        H937   1.081       .  S
C926        H938   1.083       .  S
C927        C928   1.350       .  D
C927        H939   1.082       .  S
C928        C929   1.495       .  S
C928        H940   1.084       .  S
C929        C930   1.411       .  A
C929        C934   1.406       .  A
C930        C931   1.399       .  A
C930        H941   1.078       .  S
C931        C932   1.404       .  A
C931        H942   1.083       .  S
C932        C933   1.405       .  A
C933        C934   1.398       .  A
C933        H943   1.083       .  S
C934        H944   1.083       .  S
C945        C946   1.407       .  A
C945        C950   1.406       .  A
C946        C947   1.399       .  A
C946        H959   1.083       .  S
C947        C948   1.403       .  A
C947        H960   1.083       .  S
C948        C949   1.410       .  A
C948        C951   1.492       .  S
C949        C950   1.403       .  A
C949        H961   1.082       .  S
C950        H962   1.083       .  S
C951        C952   1.347       .  D
C951        H963   1.085       .  S
C952        C953   1.492       .  S
C952        H964   1.086       .  S
C953        C954   1.402       .  A
C953        C958   1.411       .  A
C954        C955   1.397       .  A
C954        H965   1.084       .  S
C955        C956   1.408       .  A
C955        H966   1.083       .  S
C956        C957   1.406       .  A
C957        C958   1.405       .  A
C957        H967   1.083       .  S
C958        H968   1.081       .  S
C969        C970   1.405       .  A
C969        C974   1.405       .  A
C970        C971   1.396       .  A
C970        H983   1.083       .  S
C971        C972   1.401       .  A
C971        H984   1.084       .  S
C972        C973   1.409       .  A
C972        C975   1.484       .  S
C973        C974   1.403       .  A
C973        H985   1.082       .  S
C974        H986   1.084       .  S
C975        C976   1.345       .  D
C975        H987   1.086       .  S
C976        C977   1.487   1_655  S
C976        H988   1.087       .  S
C977        C978   1.402       .  A
C977        C982   1.408       .  A
C978        C979   1.398       .  A
C978        H989   1.084       .  S
C979        C980   1.407       .  A
C979        H990   1.083       .  S
C980        C981   1.405       .  A
C981        C982   1.400       .  A
C981        H991   1.083       .  S
C982        H992   1.082   1_455  S
C993        C994   1.408       .  A
C993        C998   1.404       .  A
C994        C995   1.396       .  A
C994       H1007   1.083       .  S
C995        C996   1.400       .  A
C995       H1008   1.083       .  S
C996        C997   1.410       .  A
C996        C999   1.487       .  S
C997        C998   1.402       .  A
C997       H1009   1.082       .  S
C998       H1010   1.083       .  S
C999       C1000   1.343       .  D
C999       H1011   1.086       .  S
C1000      C1001   1.486       .  S
C1000      H1012   1.086       .  S
C1001      C1002   1.399       .  A
C1001      C1006   1.412       .  A
C1002      C1003   1.393       .  A
C1002      H1013   1.084       .  S
C1003      C1004   1.406       .  A
C1003      H1014   1.084       .  S
C1004      C1005   1.404       .  A
C1005      C1006   1.405       .  A
C1005      H1015   1.083       .  S
C1006      H1016   1.082       .  S
C1017      C1018   1.406       .  A
C1017      C1022   1.406       .  A
C1018      C1019   1.400       .  A
C1018      H1031   1.083       .  S
C1019      C1020   1.404       .  A
C1019      H1032   1.083       .  S
C1020      C1021   1.405       .  A
C1020      C1023   1.483       .  S
C1021      C1022   1.394       .  A
C1021      H1033   1.082       .  S
C1022      H1034   1.083       .  S
C1023      C1024   1.347       .  D
C1023      H1035   1.087       .  S
C1024      C1025   1.480       .  S
C1024      H1036   1.086       .  S
C1025      C1026   1.402       .  A
C1025      C1030   1.405       .  A
C1026      C1027   1.396       .  A
C1026      H1037   1.083       .  S
C1027      C1028   1.405       .  A
C1027      H1038   1.083       .  S
C1028      C1029   1.407       .  A
C1029      C1030   1.398       .  A
C1029      H1039   1.083       .  S
C1030      H1040   1.083       .  S
C1041      C1042   1.402       .  A
C1041      C1046   1.400   1_655  A
C1042      C1043   1.398       .  A
C1042      H1055   1.084       .  S
C1043      C1044   1.402   1_655  A
C1043      H1056   1.083       .  S
C1044      C1045   1.406       .  A
C1044      C1047   1.479       .  S
C1045      C1046   1.394       .  A
C1045      H1057   1.083       .  S
C1046      H1058   1.084       .  S
C1047      C1048   1.347       .  D
C1047      H1059   1.086       .  S
C1048      C1049   1.476       .  S
C1048      H1060   1.086   1_455  S
C1049      C1050   1.401       .  A
C1049      C1054   1.406       .  A
C1050      C1051   1.394       .  A
C1050      H1061   1.084       .  S
C1051      C1052   1.402       .  A
C1051      H1062   1.083       .  S
C1052      C1053   1.403       .  A
C1053      C1054   1.399       .  A
C1053      H1063   1.084       .  S
C1054      H1064   1.083   1_455  S
C1065      C1066   1.408       .  A
C1065      C1070   1.405       .  A
C1066      C1067   1.405   1_455  A
C1066      H1079   1.083   1_455  S
C1067      C1068   1.410   1_655  A
C1067      H1080   1.080       .  S
C1068      C1069   1.405       .  A
C1068      C1071   1.495   1_455  S
C1069      C1070   1.397       .  A
C1069      H1081   1.083       .  S
C1070      H1082   1.083       .  S
C1071      C1072   1.352       .  D
C1071      H1083   1.085   1_655  S
C1072      C1073   1.495       .  S
C1072      H1084   1.084       .  S
C1073      C1074   1.405       .  A
C1073      C1078   1.408       .  A
C1074      C1075   1.403       .  A
C1074      H1085   1.083       .  S
C1075      C1076   1.407       .  A
C1075      H1086   1.083       .  S
C1076      C1077   1.406       .  A
C1077      C1078   1.399       .  A
C1077      H1087   1.083       .  S
C1078      H1088   1.081       .  S
C1089      C1090   1.407       .  A
C1089      C1094   1.403       .  A
C1090      C1091   1.396       .  A
C1090      H1103   1.083       .  S
C1091      C1092   1.401       .  A
C1091      H1104   1.083       .  S
C1092      C1093   1.410       .  A
C1092      C1095   1.486       .  S
C1093      C1094   1.399       .  A
C1093      H1105   1.081       .  S
C1094      H1106   1.083       .  S
C1095      C1096   1.345       .  D
C1095      H1107   1.083       .  S
C1096      C1097   1.488       .  S
C1096      H1108   1.085       .  S
C1097      C1098   1.402       .  A
C1097      C1102   1.412       .  A
C1098      C1099   1.393       .  A
C1098      H1109   1.083       .  S
C1099      C1100   1.405       .  A
C1099      H1110   1.083       .  S
C1100      C1101   1.404       .  A
C1101      C1102   1.402       .  A
C1101      H1111   1.083       .  S
C1102      H1112   1.080       .  S
C1113      C1114   1.407       .  A
C1113      C1118   1.404       .  A
C1114      C1115   1.393       .  A
C1114      H1127   1.083       .  S
C1115      C1116   1.400       .  A
C1115      H1128   1.084       .  S
C1116      C1117   1.413       .  A
C1116      C1119   1.489       .  S
C1117      C1118   1.403       .  A
C1117      H1129   1.080       .  S
C1118      H1130   1.083       .  S
C1119      C1120   1.344       .  D
C1119      H1131   1.085       .  S
C1120      C1121   1.485       .  S
C1120      H1132   1.084       .  S
C1121      C1122   1.399       .  A
C1121      C1126   1.412       .  A
C1122      C1123   1.392       .  A
C1122      H1133   1.084       .  S
C1123      C1124   1.408       .  A
C1123      H1134   1.083       .  S
C1124      C1125   1.404       .  A
C1125      C1126   1.404       .  A
C1125      H1135   1.083       .  S
C1126      H1136   1.081       .  S
C1137      C1138   1.406       .  A
C1137      C1142   1.405       .  A
C1138      C1139   1.397       .  A
C1138      H1151   1.083       .  S
C1139      C1140   1.403       .  A
C1139      H1152   1.084       .  S
C1140      C1141   1.408       .  A
C1140      C1143   1.485       .  S
C1141      C1142   1.397       .  A
C1141      H1153   1.081       .  S
C1142      H1154   1.083       .  S
C1143      C1144   1.347       .  D
C1143      H1155   1.086       .  S
C1144      C1145   1.482       .  S
C1144      H1156   1.085       .  S
C1145      C1146   1.401       .  A
C1145      C1150   1.407       .  A
C1146      C1147   1.396       .  A
C1146      H1157   1.084       .  S
C1147      C1148   1.406       .  A
C1147      H1158   1.083       .  S
C1148      C1149   1.405       .  A
C1149      C1150   1.399       .  A
C1149      H1159   1.083       .  S
C1150      H1160   1.082       .  S
C1161      C1162   1.405       .  A
C1161      C1166   1.405       .  A
C1162      C1163   1.397       .  A
C1162      H1175   1.083       .  S
C1163      C1164   1.404       .  A
C1163      H1176   1.083       .  S
C1164      C1165   1.409       .  A
C1164      C1167   1.488       .  S
C1165      C1166   1.398       .  A
C1165      H1177   1.080       .  S
C1166      H1178   1.083       .  S
C1167      C1168   1.346       .  D
C1167      H1179   1.086       .  S
C1168      C1169   1.484       .  S
C1168      H1180   1.084       .  S
C1169      C1170   1.401       .  A
C1169      C1174   1.408       .  A
C1170      C1171   1.395       .  A
C1170      H1181   1.083       .  S
C1171      C1172   1.405       .  A
C1171      H1182   1.083       .  S
C1172      C1173   1.405       .  A
C1173      C1174   1.401       .  A
C1173      H1183   1.083       .  S
C1174      H1184   1.082       .  S
C1185      C1186   1.408       .  A
C1185      C1190   1.408   1_565  A
C1186      C1187   1.400       .  A
C1186      H1199   1.082       .  S
C1187      C1188   1.403   1_565  A
C1187      H1200   1.084       .  S
C1188      C1189   1.411       .  A
C1188      C1191   1.499       .  S
C1189      C1190   1.408       .  A
C1189      H1201   1.081       .  S
C1190      H1202   1.083       .  S
C1191      C1192   1.350       .  D
C1191      H1203   1.085       .  S
C1192      C1193   1.499       .  S
C1192      H1204   1.086       .  S
C1193      C1194   1.404       .  A
C1193      C1198   1.412       .  A
C1194      C1195   1.399       .  A
C1194      H1205   1.083       .  S
C1195      C1196   1.407       .  A
C1195      H1206   1.083       .  S
C1196      C1197   1.408       .  A
C1197      C1198   1.408       .  A
C1197      H1207   1.083       .  S
C1198      H1208   1.081       .  S
C1209      C1210   1.409       .  A
C1209      C1214   1.406       .  A
C1210      C1211   1.398       .  A
C1210      H1223   1.083       .  S
C1211      C1212   1.401       .  A
C1211      H1224   1.083       .  S
C1212      C1213   1.410       .  A
C1212      C1215   1.491       .  S
C1213      C1214   1.405       .  A
C1213      H1225   1.082       .  S
C1214      H1226   1.083       .  S
C1215      C1216   1.346       .  D
C1215      H1227   1.086       .  S
C1216      C1217   1.491       .  S
C1216      H1228   1.086       .  S
C1217      C1218   1.402       .  A
C1217      C1222   1.410       .  A
C1218      C1219   1.397       .  A
C1218      H1229   1.083       .  S
C1219      C1220   1.408       .  A
C1219      H1230   1.083       .  S
C1220      C1221   1.406       .  A
C1221      C1222   1.404       .  A
C1221      H1231   1.083       .  S
C1222      H1232   1.082       .  S
C1233      C1234   1.406       .  A
C1233      C1238   1.406       .  A
C1234      C1235   1.400       .  A
C1234      H1247   1.083       .  S
C1235      C1236   1.405       .  A
C1235      H1248   1.083       .  S
C1236      C1237   1.407       .  A
C1236      C1239   1.487       .  S
C1237      C1238   1.396       .  A
C1237      H1249   1.081       .  S
C1238      H1250   1.083       .  S
C1239      C1240   1.347       .  D
C1239      H1251   1.086       .  S
C1240      C1241   1.483       .  S
C1240      H1252   1.085       .  S
C1241      C1242   1.402       .  A
C1241      C1246   1.407       .  A
C1242      C1243   1.396       .  A
C1242      H1253   1.083       .  S
C1243      C1244   1.405       .  A
C1243      H1254   1.083       .  S
C1244      C1245   1.406       .  A
C1245      C1246   1.401       .  A
C1245      H1255   1.083       .  S
C1246      H1256   1.083       .  S
C1257      C1258   1.406       .  A
C1257      C1262   1.404       .  A
C1258      C1259   1.396       .  A
C1258      H1271   1.083       .  S
C1259      C1260   1.402       .  A
C1259      H1272   1.083       .  S
C1260      C1261   1.409       .  A
C1260      C1263   1.485       .  S
C1261      C1262   1.398       .  A
C1261      H1273   1.082       .  S
C1262      H1274   1.083       .  S
C1263      C1264   1.345       .  D
C1263      H1275   1.084       .  S
C1264      C1265   1.487       .  S
C1264      H1276   1.085       .  S
C1265      C1266   1.402       .  A
C1265      C1270   1.410       .  A
C1266      C1267   1.396       .  A
C1266      H1277   1.084       .  S
C1267      C1268   1.405       .  A
C1267      H1278   1.083       .  S
C1268      C1269   1.404       .  A
C1269      C1270   1.399       .  A
C1269      H1279   1.083       .  S
C1270      H1280   1.080       .  S
C1281      C1282   1.405       .  A
C1281      C1286   1.405       .  A
C1282      C1283   1.396       .  A
C1282      H1295   1.083       .  S
C1283      C1284   1.402       .  A
C1283      H1296   1.083       .  S
C1284      C1285   1.407       .  A
C1284      C1287   1.483       .  S
C1285      C1286   1.397       .  A
C1285      H1297   1.082       .  S
C1286      H1298   1.083       .  S
C1287      C1288   1.348       .  D
C1287      H1299   1.082       .  S
C1288      C1289   1.488       .  S
C1288      H1300   1.086       .  S
C1289      C1290   1.405       .  A
C1289      C1294   1.409       .  A
C1290      C1291   1.398       .  A
C1290      H1301   1.083       .  S
C1291      C1292   1.404       .  A
C1291      H1302   1.083       .  S
C1292      C1293   1.404       .  A
C1293      C1294   1.396       .  A
C1293      H1303   1.083       .  S
C1294      H1304   1.079       .  S
C1305      C1306   1.405       .  A
C1305      C1310   1.401       .  A
C1306      C1307   1.393       .  A
C1306      H1319   1.084       .  S
C1307      C1308   1.399       .  A
C1307      H1320   1.084       .  S
C1308      C1309   1.406       .  A
C1308      C1311   1.471   1_545  S
C1309      C1310   1.396       .  A
C1309      H1321   1.083       .  S
C1310      H1322   1.083       .  S
C1311      C1312   1.344       .  D
C1311      H1323   1.086       .  S
C1312      C1313   1.474       .  S
C1312      H1324   1.087       .  S
C1313      C1314   1.400       .  A
C1313      C1318   1.407       .  A
C1314      C1315   1.393       .  A
C1314      H1325   1.084       .  S
C1315      C1316   1.403       .  A
C1315      H1326   1.084       .  S
C1316      C1317   1.401       .  A
C1317      C1318   1.396       .  A
C1317      H1327   1.084       .  S
C1318      H1328   1.082       .  S
C1329      C1330   1.407       .  A
C1329      C1334   1.408       .  A
C1330      C1331   1.402       .  A
C1330      H1343   1.083       .  S
C1331      C1332   1.405       .  A
C1331      H1344   1.083       .  S
C1332      C1333   1.410       .  A
C1332      C1335   1.499       .  S
C1333      C1334   1.406       .  A
C1333      H1345   1.082       .  S
C1334      H1346   1.083       .  S
C1335      C1336   1.352       .  D
C1335      H1347   1.084       .  S
C1336      C1337   1.501       .  S
C1336      H1348   1.085       .  S
C1337      C1338   1.406       .  A
C1337      C1342   1.411       .  A
C1338      C1339   1.400       .  A
C1338      H1349   1.083       .  S
C1339      C1340   1.406       .  A
C1339      H1350   1.083       .  S
C1340      C1341   1.408       .  A
C1341      C1342   1.407       .  A
C1341      H1351   1.083   1_564  S
C1342      H1352   1.081       .  S
C1353      C1354   1.405       .  A
C1353      C1358   1.404       .  A
C1354      C1355   1.397       .  A
C1354      H1367   1.083       .  S
C1355      C1356   1.403       .  A
C1355      H1368   1.083       .  S
C1356      C1357   1.408       .  A
C1356      C1359   1.485       .  S
C1357      C1358   1.397       .  A
C1357      H1369   1.081       .  S
C1358      H1370   1.083       .  S
C1359      C1360   1.347       .  D
C1359      H1371   1.084       .  S
C1360      C1361   1.486       .  S
C1360      H1372   1.085       .  S
C1361      C1362   1.404       .  A
C1361      C1366   1.408       .  A
C1362      C1363   1.398       .  A
C1362      H1373   1.083       .  S
C1363      C1364   1.405       .  A
C1363      H1374   1.083       .  S
C1364      C1365   1.404       .  A
C1365      C1366   1.396       .  A
C1365      H1375   1.083       .  S
C1366      H1376   1.080       .  S
C1377      C1378   1.406       .  A
C1377      C1382   1.408       .  A
C1378      C1379   1.403       .  A
C1378      H1391   1.083       .  S
C1379      C1380   1.407       .  A
C1379      H1392   1.084       .  S
C1380      C1381   1.408       .  A
C1380      C1383   1.498       .  S
C1381      C1382   1.402       .  A
C1381      H1393   1.081       .  S
C1382      H1394   1.083       .  S
C1383      C1384   1.355       .  D
C1383      H1395   1.085       .  S
C1384      C1385   1.498       .  S
C1384      H1396   1.085       .  S
C1385      C1386   1.408       .  A
C1385      C1390   1.407       .  A
C1386      C1387   1.405       .  A
C1386      H1397   1.083       .  S
C1387      C1388   1.404       .  A
C1387      H1398   1.083       .  S
C1388      C1389   1.409       .  A
C1389      C1390   1.401       .  A
C1389      H1399   1.083       .  S
C1390      H1400   1.081       .  S
C1401      C1402   1.406       .  A
C1401      C1406   1.408       .  A
C1402      C1403   1.402       .  A
C1402      H1415   1.083       .  S
C1403      C1404   1.406       .  A
C1403      H1416   1.083       .  S
C1404      C1405   1.409       .  A
C1404      C1407   1.496       .  S
C1405      C1406   1.401       .  A
C1405      H1417   1.081       .  S
C1406      H1418   1.083       .  S
C1407      C1408   1.352       .  D
C1407      H1419   1.083       .  S
C1408      C1409   1.498       .  S
C1408      H1420   1.085       .  S
C1409      C1410   1.411       .  A
C1409      C1414   1.405       .  A
C1410      C1411   1.404       .  A
C1410      H1421   1.080       .  S
C1411      C1412   1.406       .  A
C1411      H1422   1.083   1_554  S
C1412      C1413   1.405       .  A
C1413      C1414   1.399       .  A
C1413      H1423   1.083       .  S
C1414      H1424   1.083       .  S
C1425      C1426   1.401   1_554  A
C1425      C1430   1.401       .  A
C1426      C1427   1.399       .  A
C1426      H1439   1.084       .  S
C1427      C1428   1.404       .  A
C1427      H1440   1.083       .  S
C1428      C1429   1.407   1_556  A
C1428      C1431   1.483       .  S
C1429      C1430   1.396       .  A
C1429      H1441   1.082       .  S
C1430      H1442   1.084       .  S
C1431      C1432   1.348   1_556  D
C1431      H1443   1.086       .  S
C1432      C1433   1.479   1_554  S
C1432      H1444   1.085       .  S
C1433      C1434   1.401   1_556  A
C1433      C1438   1.407       .  A
C1434      C1435   1.395       .  A
C1434      H1445   1.083       .  S
C1435      C1436   1.403   1_554  A
C1435      H1446   1.084       .  S
C1436      C1437   1.402       .  A
C1437      C1438   1.398       .  A
C1437      H1447   1.084       .  S
C1438      H1448   1.082       .  S
C1449      C1450   1.406       .  A
C1449      C1454   1.406       .  A
C1450      C1451   1.403       .  A
C1450      H1463   1.083       .  S
C1451      C1452   1.407       .  A
C1451      H1464   1.083       .  S
C1452      C1453   1.410       .  A
C1452      C1455   1.500       .  S
C1453      C1454   1.402       .  A
C1453      H1465   1.080       .  S
C1454      H1466   1.083       .  S
C1455      C1456   1.352       .  D
C1455      H1467   1.085       .  S
C1456      C1457   1.496       .  S
C1456      H1468   1.083       .  S
C1457      C1458   1.405       .  A
C1457      C1462   1.410       .  A
C1458      C1459   1.399       .  A
C1458      H1469   1.083       .  S
C1459      C1460   1.405       .  A
C1459      H1470   1.083       .  S
C1460      C1461   1.408       .  A
C1461      C1462   1.405       .  A
C1461      H1471   1.083       .  S
C1462      H1472   1.081       .  S
C1473      C1474   1.405       .  A
C1473      C1478   1.407       .  A
C1474      C1475   1.400       .  A
C1474      H1487   1.083       .  S
C1475      C1476   1.405       .  A
C1475      H1488   1.083       .  S
C1476      C1477   1.407       .  A
C1476      C1479   1.489       .  S
C1477      C1478   1.399       .  A
C1477      H1489   1.082       .  S
C1478      H1490   1.083       .  S
C1479      C1480   1.350       .  D
C1479      H1491   1.085       .  S
C1480      C1481   1.488       .  S
C1480      H1492   1.085       .  S
C1481      C1482   1.404       .  A
C1481      C1486   1.407       .  A
C1482      C1483   1.398       .  A
C1482      H1493   1.084       .  S
C1483      C1484   1.406       .  A
C1483      H1494   1.083       .  S
C1484      C1485   1.407       .  A
C1485      C1486   1.401       .  A
C1485      H1495   1.083       .  S
C1486      H1496   1.082       .  S
C1497      C1498   1.407       .  A
C1497      C1502   1.406       .  A
C1498      C1499   1.402       .  A
C1498      H1511   1.083       .  S
C1499      C1500   1.405       .  A
C1499      H1512   1.083       .  S
C1500      C1501   1.409       .  A
C1500      C1503   1.495       .  S
C1501      C1502   1.400       .  A
C1501      H1513   1.081       .  S
C1502      H1514   1.083       .  S
C1503      C1504   1.351       .  D
C1503      H1515   1.084       .  S
C1504      C1505   1.494       .  S
C1504      H1516   1.085       .  S
C1505      C1506   1.404       .  A
C1505      C1510   1.410       .  A
C1506      C1507   1.397       .  A
C1506      H1517   1.084       .  S
C1507      C1508   1.405       .  A
C1507      H1518   1.083       .  S
C1508      C1509   1.407       .  A
C1509      C1510   1.405       .  A
C1509      H1519   1.083       .  S
C1510      H1520   1.081       .  S
C1521      C1522   1.403       .  A
C1521      C1526   1.403       .  A
C1522      C1523   1.395       .  A
C1522      H1535   1.084       .  S
C1523      C1524   1.402       .  A
C1523      H1536   1.084       .  S
C1524      C1525   1.407       .  A
C1524      C1527   1.480       .  S
C1525      C1526   1.400       .  A
C1525      H1537   1.082       .  S
C1526      H1538   1.084       .  S
C1527      C1528   1.348       .  D
C1527      H1539   1.086       .  S
C1528      C1529   1.484       .  S
C1528      H1540   1.086       .  S
C1529      C1530   1.404       .  A
C1529      C1534   1.407       .  A
C1530      C1531   1.400       .  A
C1530      H1541   1.083       .  S
C1531      C1532   1.402       .  A
C1531      H1542   1.084       .  S
C1532      C1533   1.400       .  A
C1533      C1534   1.395       .  A
C1533      H1543   1.084       .  S
C1534      H1544   1.082       .  S
C1545      C1546   1.406       .  A
C1545      C1550   1.406       .  A
C1546      C1547   1.401       .  A
C1546      H1559   1.083       .  S
C1547      C1548   1.406       .  A
C1547      H1560   1.084       .  S
C1548      C1549   1.408       .  A
C1548      C1551   1.493       .  S
C1549      C1550   1.400       .  A
C1549      H1561   1.081       .  S
C1550      H1562   1.083       .  S
C1551      C1552   1.351       .  D
C1551      H1563   1.085       .  S
C1552      C1553   1.491       .  S
C1552      H1564   1.084       .  S
C1553      C1554   1.405       .  A
C1553      C1558   1.407       .  A
C1554      C1555   1.400       .  A
C1554      H1565   1.083       .  S
C1555      C1556   1.405       .  A
C1555      H1566   1.083       .  S
C1556      C1557   1.407       .  A
C1557      C1558   1.400       .  A
C1557      H1567   1.083       .  S
C1558      H1568   1.081       .  S
C1569      C1570   1.405       .  A
C1569      C1574   1.407       .  A
C1570      C1571   1.403       .  A
C1570      H1583   1.083       .  S
C1571      C1572   1.406       .  A
C1571      H1584   1.083       .  S
C1572      C1573   1.406       .  A
C1572      C1575   1.491       .  S
C1573      C1574   1.396       .  A
C1573      H1585   1.082       .  S
C1574      H1586   1.083       .  S
C1575      C1576   1.351       .  D
C1575      H1587   1.083       .  S
C1576      C1577   1.493       .  S
C1576      H1588   1.085       .  S
C1577      C1578   1.406       .  A
C1577      C1582   1.409       .  A
C1578      C1579   1.398       .  A
C1578      H1589   1.083       .  S
C1579      C1580   1.404       .  A
C1579      H1590   1.083       .  S
C1580      C1581   1.406       .  A
C1581      C1582   1.402       .  A
C1581      H1591   1.083       .  S
C1582      H1592   1.080       .  S
C1593      C1594   1.404       .  A
C1593      C1598   1.404       .  A
C1594      C1595   1.395       .  A
C1594      H1607   1.083       .  S
C1595      C1596   1.404       .  A
C1595      H1608   1.083       .  S
C1596      C1597   1.411       .  A
C1596      C1599   1.490       .  S
C1597      C1598   1.399       .  A
C1597      H1609   1.079       .  S
C1598      H1610   1.083       .  S
C1599      C1600   1.348       .  D
C1599      H1611   1.085       .  S
C1600      C1601   1.486       .  S
C1600      H1612   1.082       .  S
C1601      C1602   1.403       .  A
C1601      C1606   1.408       .  A
C1602      C1603   1.397       .  A
C1602      H1613   1.084       .  S
C1603      C1604   1.406       .  A
C1603      H1614   1.083       .  S
C1604      C1605   1.405       .  A
C1605      C1606   1.398       .  A
C1605      H1615   1.083       .  S
C1606      H1616   1.081       .  S
C1617      C1618   1.406       .  A
C1617      C1622   1.405       .  A
C1618      C1619   1.395       .  A
C1618      H1631   1.083       .  S
C1619      C1620   1.402       .  A
C1619      H1632   1.084       .  S
C1620      C1621   1.410       .  A
C1620      C1623   1.489       .  S
C1621      C1622   1.401       .  A
C1621      H1633   1.081       .  S
C1622      H1634   1.083       .  S
C1623      C1624   1.348       .  D
C1623      H1635   1.083       .  S
C1624      C1625   1.493       .  S
C1624      H1636   1.085       .  S
C1625      C1626   1.405       .  A
C1625      C1630   1.411       .  A
C1626      C1627   1.398       .  A
C1626      H1637   1.084       .  S
C1627      C1628   1.404       .  A
C1627      H1638   1.083       .  S
C1628      C1629   1.404       .  A
C1629      C1630   1.399       .  A
C1629      H1639   1.083       .  S
C1630      H1640   1.079       .  S
C1641      C1642   1.406       .  A
C1641      C1646   1.407       .  A
C1642      C1643   1.400       .  A
C1642      H1655   1.083       .  S
C1643      C1644   1.404       .  A
C1643      H1656   1.083       .  S
C1644      C1645   1.406       .  A
C1644      C1647   1.487       .  S
C1645      C1646   1.398       .  A
C1645      H1657   1.082       .  S
C1646      H1658   1.083       .  S
C1647      C1648   1.349       .  D
C1647      H1659   1.085       .  S
C1648      C1649   1.487       .  S
C1648      H1660   1.085       .  S
C1649      C1650   1.404       .  A
C1649      C1654   1.406       .  A
C1650      C1651   1.399       .  A
C1650      H1661   1.083       .  S
C1651      C1652   1.405       .  A
C1651      H1662   1.083       .  S
C1652      C1653   1.407       .  A
C1653      C1654   1.399       .  A
C1653      H1663   1.083       .  S
C1654      H1664   1.082       .  S
C1665      C1666   1.406       .  A
C1665      C1670   1.407       .  A
C1666      C1667   1.397       .  A
C1666      H1679   1.083       .  S
C1667      C1668   1.403       .  A
C1667      H1680   1.083       .  S
C1668      C1669   1.412       .  A
C1668      C1671   1.496       .  S
C1669      C1670   1.406       .  A
C1669      H1681   1.081       .  S
C1670      H1682   1.083       .  S
C1671      C1672   1.348       .  D
C1671      H1683   1.085       .  S
C1672      C1673   1.495       .  S
C1672      H1684   1.085       .  S
C1673      C1674   1.402       .  A
C1673      C1678   1.412       .  A
C1674      C1675   1.397       .  A
C1674      H1685   1.084       .  S
C1675      C1676   1.408       .  A
C1675      H1686   1.083       .  S
C1676      C1677   1.405       .  A
C1677      C1678   1.406       .  A
C1677      H1687   1.083       .  S
C1678      H1688   1.081       .  S
C1689      C1690   1.403       .  A
C1689      C1694   1.402       .  A
C1690      C1691   1.394       .  A
C1690      H1703   1.084       .  S
C1691      C1692   1.401       .  A
C1691      H1704   1.084       .  S
C1692      C1693   1.407       .  A
C1692      C1695   1.478       .  S
C1693      C1694   1.399       .  A
C1693      H1705   1.082       .  S
C1694      H1706   1.083       .  S
C1695      C1696   1.347       .  D
C1695      H1707   1.086       .  S
C1696      C1697   1.480       .  S
C1696      H1708   1.086       .  S
C1697      C1698   1.403       .  A
C1697      C1702   1.406       .  A
C1698      C1699   1.398       .  A
C1698      H1709   1.083       .  S
C1699      C1700   1.402       .  A
C1699      H1710   1.084       .  S
C1700      C1701   1.400       .  A
C1701      C1702   1.395       .  A
C1701      H1711   1.084       .  S
C1702      H1712   1.082       .  S
C1713      C1714   1.405       .  A
C1713      C1718   1.405       .  A
C1714      C1715   1.397       .  A
C1714      H1727   1.083       .  S
C1715      C1716   1.403       .  A
C1715      H1728   1.084       .  S
C1716      C1717   1.409       .  A
C1716      C1719   1.487       .  S
C1717      C1718   1.399       .  A
C1717      H1729   1.081       .  S
C1718      H1730   1.083       .  S
C1719      C1720   1.347       .  D
C1719      H1731   1.086       .  S
C1720      C1721   1.485       .  S
C1720      H1732   1.085       .  S
C1721      C1722   1.402       .  A
C1721      C1726   1.408       .  A
C1722      C1723   1.397       .  A
C1722      H1733   1.084       .  S
C1723      C1724   1.406       .  A
C1723      H1734   1.083       .  S
C1724      C1725   1.405       .  A
C1725      C1726   1.399       .  A
C1725      H1735   1.083       .  S
C1726      H1736   1.082       .  S
C1737      C1738   1.405       .  A
C1737      C1742   1.407       .  A
C1738      C1739   1.402       .  A
C1738      H1751   1.083       .  S
C1739      C1740   1.407       .  A
C1739      H1752   1.083       .  S
C1740      C1741   1.411       .  A
C1740      C1743   1.501       .  S
C1741      C1742   1.403       .  A
C1741      H1753   1.080       .  S
C1742      H1754   1.083       .  S
C1743      C1744   1.353       .  D
C1743      H1755   1.085       .  S
C1744      C1745   1.496       .  S
C1744      H1756   1.083       .  S
C1745      C1746   1.405       .  A
C1745      C1750   1.409       .  A
C1746      C1747   1.401       .  A
C1746      H1757   1.083       .  S
C1747      C1748   1.406       .  A
C1747      H1758   1.083       .  S
C1748      C1749   1.408       .  A
C1749      C1750   1.404       .  A
C1749      H1759   1.083       .  S
C1750      H1760   1.081       .  S
C1761      C1762   1.406       .  A
C1761      C1766   1.409       .  A
C1762      C1763   1.402       .  A
C1762      H1775   1.083       .  S
C1763      C1764   1.406       .  A
C1763      H1776   1.083       .  S
C1764      C1765   1.409       .  A
C1764      C1767   1.497       .  S
C1765      C1766   1.406       .  A
C1765      H1777   1.082       .  S
C1766      H1778   1.083       .  S
C1767      C1768   1.353       .  D
C1767      H1779   1.085       .  S
C1768      C1769   1.498       .  S
C1768      H1780   1.085       .  S
C1769      C1770   1.407       .  A
C1769      C1774   1.408       .  A
C1770      C1771   1.404       .  A
C1770      H1781   1.083       .  S
C1771      C1772   1.406       .  A
C1771      H1782   1.083       .  S
C1772      C1773   1.408       .  A
C1773      C1774   1.404       .  A
C1773      H1783   1.083   1_545  S
C1774      H1784   1.082       .  S
C1785      C1786   1.404       .  A
C1785      C1790   1.404       .  A
C1786      C1787   1.397       .  A
C1786      H1799   1.083       .  S
C1787      C1788   1.402       .  A
C1787      H1800   1.084       .  S
C1788      C1789   1.404       .  A
C1788      C1791   1.475       .  S
C1789      C1790   1.392       .  A
C1789      H1801   1.082       .  S
C1790      H1802   1.084       .  S
C1791      C1792   1.348   1_545  D
C1791      H1803   1.086       .  S
C1792      C1793   1.475       .  S
C1792      H1804   1.087       .  S
C1793      C1794   1.402       .  A
C1793      C1798   1.404       .  A
C1794      C1795   1.397       .  A
C1794      H1805   1.084       .  S
C1795      C1796   1.404       .  A
C1795      H1806   1.083       .  S
C1796      C1797   1.405       .  A
C1797      C1798   1.393       .  A
C1797      H1807   1.084       .  S
C1798      H1808   1.082       .  S
C1809      C1810   1.405       .  A
C1809      C1814   1.406       .  A
C1810      C1811   1.398       .  A
C1810      H1823   1.083       .  S
C1811      C1812   1.404       .  A
C1811      H1824   1.083       .  S
C1812      C1813   1.408       .  A
C1812      C1815   1.488       .  S
C1813      C1814   1.398       .  A
C1813      H1825   1.081       .  S
C1814      H1826   1.083       .  S
C1815      C1816   1.349       .  D
C1815      H1827   1.085       .  S
C1816      C1817   1.487       .  S
C1816      H1828   1.084       .  S
C1817      C1818   1.407       .  A
C1817      C1822   1.404       .  A
C1818      C1819   1.398       .  A
C1818      H1829   1.081       .  S
C1819      C1820   1.406       .  A
C1819      H1830   1.083       .  S
C1820      C1821   1.405       .  A
C1821      C1822   1.399       .  A
C1821      H1831   1.083       .  S
C1822      H1832   1.083       .  S
C1833      C1834   1.408       .  A
C1833      C1838   1.407       .  A
C1834      C1835   1.401       .  A
C1834      H1847   1.083       .  S
C1835      C1836   1.404       .  A
C1835      H1848   1.083       .  S
C1836      C1837   1.410       .  A
C1836      C1839   1.495       .  S
C1837      C1838   1.404       .  A
C1837      H1849   1.082       .  S
C1838      H1850   1.083       .  S
C1839      C1840   1.348       .  D
C1839      H1851   1.086       .  S
C1840      C1841   1.494       .  S
C1840      H1852   1.086       .  S
C1841      C1842   1.403       .  A
C1841      C1846   1.410       .  A
C1842      C1843   1.399       .  A
C1842      H1853   1.083       .  S
C1843      C1844   1.408       .  A
C1843      H1854   1.083       .  S
C1844      C1845   1.408       .  A
C1845      C1846   1.406       .  A
C1845      H1855   1.083       .  S
C1846      H1856   1.082       .  S
C1857      C1858   1.404       .  A
C1857      C1862   1.408       .  A
C1858      C1859   1.402       .  A
C1858      H1871   1.083       .  S
C1859      C1860   1.406       .  A
C1859      H1872   1.083       .  S
C1860      C1861   1.408       .  A
C1860      C1863   1.495       .  S
C1861      C1862   1.404       .  A
C1861      H1873   1.082       .  S
C1862      H1874   1.083       .  S
C1863      C1864   1.352       .  D
C1863      H1875   1.085       .  S
C1864      C1865   1.497       .  S
C1864      H1876   1.086       .  S
C1865      C1866   1.407       .  A
C1865      C1870   1.409       .  A
C1866      C1867   1.404       .  A
C1866      H1877   1.084       .  S
C1867      C1868   1.406       .  A
C1867      H1878   1.083       .  S
C1868      C1869   1.406       .  A
C1869      C1870   1.401       .  A
C1869      H1879   1.083       .  S
C1870      H1880   1.081       .  S
C1881      C1882   1.403       .  A
C1881      C1886   1.403       .  A
C1882      C1883   1.397       .  A
C1882      H1895   1.083       .  S
C1883      C1884   1.402       .  A
C1883      H1896   1.084       .  S
C1884      C1885   1.404       .  A
C1884      C1887   1.474       .  S
C1885      C1886   1.391       .  A
C1885      H1897   1.083       .  S
C1886      H1898   1.084       .  S
C1887      C1888   1.347       .  D
C1887      H1899   1.086       .  S
C1888      C1889   1.474       .  S
C1888      H1900   1.086       .  S
C1889      C1890   1.403       .  A
C1889      C1894   1.403       .  A
C1890      C1891   1.397       .  A
C1890      H1901   1.083       .  S
C1891      C1892   1.403       .  A
C1891      H1902   1.083       .  S
C1892      C1893   1.405       .  A
C1893      C1894   1.391       .  A
C1893      H1903   1.084       .  S
C1894      H1904   1.082       .  S
C1905      C1906   1.404       .  A
C1905      C1910   1.405       .  A
C1906      C1907   1.394       .  A
C1906      H1919   1.083       .  S
C1907      C1908   1.401       .  A
C1907      H1920   1.084       .  S
C1908      C1909   1.406       .  A
C1908      C1911   1.477       .  S
C1909      C1910   1.396       .  A
C1909      H1921   1.082       .  S
C1910      H1922   1.083       .  S
C1911      C1912   1.345       .  D
C1911      H1923   1.086       .  S
C1912      C1913   1.479       .  S
C1912      H1924   1.086       .  S
C1913      C1914   1.402       .  A
C1913      C1918   1.407       .  A
C1914      C1915   1.396       .  A
C1914      H1925   1.084       .  S
C1915      C1916   1.405       .  A
C1915      H1926   1.083       .  S
C1916      C1917   1.403       .  A
C1917      C1918   1.394       .  A
C1917      H1927   1.083       .  S
C1918      H1928   1.082       .  S
C1929      C1930   1.403       .  A
C1929      C1934   1.402       .  A
C1930      C1931   1.393       .  A
C1930      H1943   1.084       .  S
C1931      C1932   1.400       .  A
C1931      H1944   1.084       .  S
C1932      C1933   1.407       .  A
C1932      C1935   1.474       .  S
C1933      C1934   1.396       .  A
C1933      H1945   1.082       .  S
C1934      H1946   1.084       .  S
C1935      C1936   1.344       .  D
C1935      H1947   1.087       .  S
C1936      C1937   1.472       .  S
C1936      H1948   1.086       .  S
C1937      C1938   1.399       .  A
C1937      C1942   1.406       .  A
C1938      C1939   1.393       .  A
C1938      H1949   1.084       .  S
C1939      C1940   1.405       .  A
C1939      H1950   1.084       .  S
C1940      C1941   1.401       .  A
C1941      C1942   1.396       .  A
C1941      H1951   1.084       .  S
C1942      H1952   1.083       .  S
C1953      C1954   1.407       .  A
C1953      C1958   1.407       .  A
C1954      C1955   1.401       .  A
C1954      H1967   1.083       .  S
C1955      C1956   1.404       .  A
C1955      H1968   1.083       .  S
C1956      C1957   1.410       .  A
C1956      C1959   1.496       .  S
C1957      C1958   1.405       .  A
C1957      H1969   1.082       .  S
C1958      H1970   1.083       .  S
C1959      C1960   1.349       .  D
C1959      H1971   1.086       .  S
C1960      C1961   1.493       .  S
C1960      H1972   1.085       .  S
C1961      C1962   1.402       .  A
C1961      C1966   1.410       .  A
C1962      C1963   1.398       .  A
C1962      H1973   1.083       .  S
C1963      C1964   1.408       .  A
C1963      H1974   1.083       .  S
C1964      C1965   1.407       .  A
C1965      C1966   1.407       .  A
C1965      H1975   1.083       .  S
C1966      H1976   1.082       .  S
C1977      C1978   1.405       .  A
C1977      C1982   1.404       .  A
C1978      C1979   1.396       .  A
C1978      H1991   1.083       .  S
C1979      C1980   1.403       .  A
C1979      H1992   1.083       .  S
C1980      C1981   1.410       .  A
C1980      C1983   1.490       .  S
C1981      C1982   1.399       .  A
C1981      H1993   1.080       .  S
C1982      H1994   1.083       .  S
C1983      C1984   1.347       .  D
C1983      H1995   1.084       .  S
C1984      C1985   1.487       .  S
C1984      H1996   1.083       .  S
C1985      C1986   1.410       .  A
C1985      C1990   1.402       .  A
C1986      C1987   1.401       .  A
C1986      H1997   1.081       .  S
C1987      C1988   1.405       .  A
C1987      H1998   1.083       .  S
C1988      C1989   1.406       .  A
C1989      C1990   1.395       .  A
C1989      H1999   1.083       .  S
C1990      H2000   1.083       .  S
C2001      C2002   1.406       .  A
C2001      C2006   1.407       .  A
C2002      C2003   1.402       .  A
C2002      H2015   1.083       .  S
C2003      C2004   1.406       .  A
C2003      H2016   1.083       .  S
C2004      C2005   1.410       .  A
C2004      C2007   1.499       .  S
C2005      C2006   1.403       .  A
C2005      H2017   1.081       .  S
C2006      H2018   1.083   1_565  S
C2007      C2008   1.352       .  D
C2007      H2019   1.085       .  S
C2008      C2009   1.497       .  S
C2008      H2020   1.084       .  S
C2009      C2010   1.405       .  A
C2009      C2014   1.410       .  A
C2010      C2011   1.400       .  A
C2010      H2021   1.083       .  S
C2011      C2012   1.406       .  A
C2011      H2022   1.083       .  S
C2012      C2013   1.408       .  A
C2013      C2014   1.405       .  A
C2013      H2023   1.083       .  S
C2014      H2024   1.081       .  S
C2025      C2026   1.405       .  A
C2025      C2030   1.405       .  A
C2026      C2027   1.397       .  A
C2026      H2039   1.083       .  S
C2027      C2028   1.403       .  A
C2027      H2040   1.084       .  S
C2028      C2029   1.407       .  A
C2028      C2031   1.484       .  S
C2029      C2030   1.398       .  A
C2029      H2041   1.081       .  S
C2030      H2042   1.083       .  S
C2031      C2032   1.348       .  D
C2031      H2043   1.085       .  S
C2032      C2033   1.486       .  S
C2032      H2044   1.085       .  S
C2033      C2034   1.403       .  A
C2033      C2038   1.407       .  A
C2034      C2035   1.399       .  A
C2034      H2045   1.083       .  S
C2035      C2036   1.405       .  A
C2035      H2046   1.083       .  S
C2036      C2037   1.406       .  A
C2037      C2038   1.397       .  A
C2037      H2047   1.083       .  S
C2038      H2048   1.081       .  S
C2049      C2050   1.404       .  A
C2049      C2054   1.406       .  A
C2050      C2051   1.399       .  A
C2050      H2063   1.083       .  S
C2051      C2052   1.410       .  A
C2051      H2064   1.080       .  S
C2052      C2053   1.403       .  A
C2052      C2055   1.489       .  S
C2053      C2054   1.397       .  A
C2053      H2065   1.083       .  S
C2054      H2066   1.083       .  S
C2055      C2056   1.347       .  D
C2055      H2067   1.085       .  S
C2056      C2057   1.485       .  S
C2056      H2068   1.083       .  S
C2057      C2058   1.402       .  A
C2057      C2062   1.409       .  A
C2058      C2059   1.395       .  A
C2058      H2069   1.084       .  S
C2059      C2060   1.405       .  A
C2059      H2070   1.083       .  S
C2060      C2061   1.405       .  A
C2061      C2062   1.400       .  A
C2061      H2071   1.084       .  S
C2062      H2072   1.081       .  S
C2073      C2074   1.407       .  A
C2073      C2078   1.406       .  A
C2074      C2075   1.398       .  A
C2074      H2087   1.083       .  S
C2075      C2076   1.403       .  A
C2075      H2088   1.083       .  S
C2076      C2077   1.410       .  A
C2076      C2079   1.492       .  S
C2077      C2078   1.404       .  A
C2077      H2089   1.082       .  S
C2078      H2090   1.083       .  S
C2079      C2080   1.348       .  D
C2079      H2091   1.086       .  S
C2080      C2081   1.492       .  S
C2080      H2092   1.085       .  S
C2081      C2082   1.403       .  A
C2081      C2086   1.409       .  A
C2082      C2083   1.400       .  A
C2082      H2093   1.083       .  S
C2083      C2084   1.407       .  A
C2083      H2094   1.083       .  S
C2084      C2085   1.406       .  A
C2085      C2086   1.402       .  A
C2085      H2095   1.083       .  S
C2086      H2096   1.082       .  S
C2097      C2098   1.405       .  A
C2097      C2102   1.407       .  A
C2098      C2099   1.400       .  A
C2098      H2111   1.083       .  S
C2099      C2100   1.405       .  A
C2099      H2112   1.084       .  S
C2100      C2101   1.409       .  A
C2100      C2103   1.493       .  S
C2101      C2102   1.400       .  A
C2101      H2113   1.081       .  S
C2102      H2114   1.083       .  S
C2103      C2104   1.352       .  D
C2103      H2115   1.083       .  S
C2104      C2105   1.497       .  S
C2104      H2116   1.085       .  S
C2105      C2106   1.407       .  A
C2105      C2110   1.410       .  A
C2106      C2107   1.401       .  A
C2106      H2117   1.084       .  S
C2107      C2108   1.405       .  A
C2107      H2118   1.083       .  S
C2108      C2109   1.406       .  A
C2109      C2110   1.400       .  A
C2109      H2119   1.083       .  S
C2110      H2120   1.080       .  S
C2121      C2122   1.406       .  A
C2121      C2126   1.405       .  A
C2122      C2123   1.398       .  A
C2122      H2135   1.083       .  S
C2123      C2124   1.402       .  A
C2123      H2136   1.083       .  S
C2124      C2125   1.407       .  A
C2124      C2127   1.482       .  S
C2125      C2126   1.397       .  A
C2125      H2137   1.082       .  S
C2126      H2138   1.083       .  S
C2127      C2128   1.348       .  D
C2127      H2139   1.084       .  S
C2128      C2129   1.486       .  S
C2128      H2140   1.086       .  S
C2129      C2130   1.403       .  A
C2129      C2134   1.408       .  A
C2130      C2131   1.397       .  A
C2130      H2141   1.083       .  S
C2131      C2132   1.405       .  A
C2131      H2142   1.083       .  S
C2132      C2133   1.405       .  A
C2133      C2134   1.398       .  A
C2133      H2143   1.083       .  S
C2134      H2144   1.081       .  S
C2145      C2146   1.405       .  A
C2145      C2150   1.408       .  A
C2146      C2147   1.400       .  A
C2146      H2159   1.083       .  S
C2147      C2148   1.406       .  A
C2147      H2160   1.083       .  S
C2148      C2149   1.411       .  A
C2148      C2151   1.500       .  S
C2149      C2150   1.406       .  A
C2149      H2161   1.080       .  S
C2150      H2162   1.083       .  S
C2151      C2152   1.354       .  D
C2151      H2163   1.084       .  S
C2152      C2153   1.499       .  S
C2152      H2164   1.083       .  S
C2153      C2154   1.409       .  A
C2153      C2158   1.407       .  A
C2154      C2155   1.401       .  A
C2154      H2165   1.081       .  S
C2155      C2156   1.407       .  A
C2155      H2166   1.083       .  S
C2156      C2157   1.406       .  A
C2157      C2158   1.404       .  A
C2157      H2167   1.083       .  S
C2158      H2168   1.083       .  S
C2169      C2170   1.408       .  A
C2169      C2174   1.408       .  A
C2170      C2171   1.405       .  A
C2170      H2183   1.083       .  S
C2171      C2172   1.407       .  A
C2171      H2184   1.084       .  S
C2172      C2173   1.410       .  A
C2172      C2175   1.503       .  S
C2173      C2174   1.405       .  A
C2173      H2185   1.081       .  S
C2174      H2186   1.083       .  S
C2175      C2176   1.353       .  D
C2175      H2187   1.086       .  S
C2176      C2177   1.500       .  S
C2176      H2188   1.085       .  S
C2177      C2178   1.405       .  A
C2177      C2182   1.411       .  A
C2178      C2179   1.401       .  A
C2178      H2189   1.084       .  S
C2179      C2180   1.407       .  A
C2179      H2190   1.083       .  S
C2180      C2181   1.409       .  A
C2181      C2182   1.409       .  A
C2181      H2191   1.083       .  S
C2182      H2192   1.081       .  S
C2193      C2194   1.403       .  A
C2193      C2198   1.403       .  A
C2194      C2195   1.398       .  A
C2194      H2207   1.083       .  S
C2195      C2196   1.403       .  A
C2195      H2208   1.084       .  S
C2196      C2197   1.404       .  A
C2196      C2199   1.475       .  S
C2197      C2198   1.391       .  A
C2197      H2209   1.082       .  S
C2198      H2210   1.084       .  S
C2199      C2200   1.348       .  D
C2199      H2211   1.086       .  S
C2200      C2201   1.477       .  S
C2200      H2212   1.086       .  S
C2201      C2202   1.404       .  A
C2201      C2206   1.404       .  A
C2202      C2203   1.398       .  A
C2202      H2213   1.084       .  S
C2203      C2204   1.403       .  A
C2203      H2214   1.083       .  S
C2204      C2205   1.404       .  A
C2205      C2206   1.391       .  A
C2205      H2215   1.083       .  S
C2206      H2216   1.082       .  S
C2217      C2218   1.406       .  A
C2217      C2222   1.407       .  A
C2218      C2219   1.399       .  A
C2218      H2231   1.083       .  S
C2219      C2220   1.404       .  A
C2219      H2232   1.084       .  S
C2220      C2221   1.408       .  A
C2220      C2223   1.490       .  S
C2221      C2222   1.401       .  A
C2221      H2233   1.081       .  S
C2222      H2234   1.083       .  S
C2223      C2224   1.350       .  D
C2223      H2235   1.085       .  S
C2224      C2225   1.492       .  S
C2224      H2236   1.085       .  S
C2225      C2226   1.405       .  A
C2225      C2230   1.409       .  A
C2226      C2227   1.401       .  A
C2226      H2237   1.084       .  S
C2227      C2228   1.406       .  A
C2227      H2238   1.083       .  S
C2228      C2229   1.406       .  A
C2229      C2230   1.400       .  A
C2229      H2239   1.083       .  S
C2230      H2240   1.081       .  S
C2241      C2242   1.406       .  A
C2241      C2246   1.408       .  A
C2242      C2243   1.404       .  A
C2242      H2255   1.083       .  S
C2243      C2244   1.407       .  A
C2243      H2256   1.083       .  S
C2244      C2245   1.407       .  A
C2244      C2247   1.495       .  S
C2245      C2246   1.400       .  A
C2245      H2257   1.082       .  S
C2246      H2258   1.083       .  S
C2247      C2248   1.352       .  D
C2247      H2259   1.085       .  S
C2248      C2249   1.493       .  S
C2248      H2260   1.085       .  S
C2249      C2250   1.405       .  A
C2249      C2254   1.408       .  A
C2250      C2251   1.400       .  A
C2250      H2261   1.083       .  S
C2251      C2252   1.406       .  A
C2251      H2262   1.083       .  S
C2252      C2253   1.408       .  A
C2253      C2254   1.404       .  A
C2253      H2263   1.083       .  S
C2254      H2264   1.082       .  S
C2265      C2266   1.407       .  A
C2265      C2270   1.408       .  A
C2266      C2267   1.398       .  A
C2266      H2279   1.083       .  S
C2267      C2268   1.403       .  A
C2267      H2280   1.084       .  S
C2268      C2269   1.409       .  A
C2268      C2271   1.492       .  S
C2269      C2270   1.406       .  A
C2269      H2281   1.082       .  S
C2270      H2282   1.083       .  S
C2271      C2272   1.348       .  D
C2271      H2283   1.087       .  S
C2272      C2273   1.492   1_455  S
C2272      H2284   1.086       .  S
C2273      C2274   1.404       .  A
C2273      C2278   1.409       .  A
C2274      C2275   1.402       .  A
C2274      H2285   1.084   1_655  S
C2275      C2276   1.407       .  A
C2275      H2286   1.083       .  S
C2276      C2277   1.405       .  A
C2277      C2278   1.402       .  A
C2277      H2287   1.083       .  S
C2278      H2288   1.082       .  S
C2289      C2290   1.403       .  A
C2289      C2294   1.399       .  A
C2290      C2291   1.399       .  A
C2290      H2303   1.084       .  S
C2291      C2292   1.402       .  A
C2291      H2304   1.083       .  S
C2292      C2293   1.406   1_655  A
C2292      C2295   1.478       .  S
C2293      C2294   1.393   1_455  A
C2293      H2305   1.083       .  S
C2294      H2306   1.084       .  S
C2295      C2296   1.347       .  D
C2295      H2307   1.086   1_655  S
C2296      C2297   1.475       .  S
C2296      H2308   1.087       .  S
C2297      C2298   1.402   1_655  A
C2297      C2302   1.406       .  A
C2298      C2299   1.393       .  A
C2298      H2309   1.083       .  S
C2299      C2300   1.400       .  A
C2299      H2310   1.084       .  S
C2300      C2301   1.403       .  A
C2301      C2302   1.398   1_455  A
C2301      H2311   1.084       .  S
C2302      H2312   1.083       .  S
C2313      C2314   1.406       .  A
C2313      C2318   1.405       .  A
C2314      C2315   1.399       .  A
C2314      H2327   1.083       .  S
C2315      C2316   1.404       .  A
C2315      H2328   1.083       .  S
C2316      C2317   1.409       .  A
C2316      C2319   1.490       .  S
C2317      C2318   1.399       .  A
C2317      H2329   1.080       .  S
C2318      H2330   1.083       .  S
C2319      C2320   1.348       .  D
C2319      H2331   1.085       .  S
C2320      C2321   1.485       .  S
C2320      H2332   1.083       .  S
C2321      C2322   1.401       .  A
C2321      C2326   1.408       .  A
C2322      C2323   1.395       .  A
C2322      H2333   1.083       .  S
C2323      C2324   1.406       .  A
C2323      H2334   1.083       .  S
C2324      C2325   1.406       .  A
C2325      C2326   1.402       .  A
C2325      H2335   1.083       .  S
C2326      H2336   1.082       .  S
C2337      C2338   1.405       .  A
C2337      C2342   1.404       .  A
C2338      C2339   1.396       .  A
C2338      H2351   1.083       .  S
C2339      C2340   1.405       .  A
C2339      H2352   1.084       .  S
C2340      C2341   1.412       .  A
C2340      C2343   1.494       .  S
C2341      C2342   1.401       .  A
C2341      H2353   1.079       .  S
C2342      H2354   1.083       .  S
C2343      C2344   1.350       .  D
C2343      H2355   1.084       .  S
C2344      C2345   1.493       .  S
C2344      H2356   1.082       .  S
C2345      C2346   1.411       .  A
C2345      C2350   1.405       .  A
C2346      C2347   1.399       .  A
C2346      H2357   1.080       .  S
C2347      C2348   1.405       .  A
C2347      H2358   1.083       .  S
C2348      C2349   1.405       .  A
C2349      C2350   1.398       .  A
C2349      H2359   1.083       .  S
C2350      H2360   1.083       .  S
C2361      C2362   1.402       .  A
C2361      C2366   1.399       .  A
C2362      C2363   1.399       .  A
C2362      H2375   1.083       .  S
C2363      C2364   1.403       .  A
C2363      H2376   1.083       .  S
C2364      C2365   1.407       .  A
C2364      C2367   1.481       .  S
C2365      C2366   1.394       .  A
C2365      H2377   1.082       .  S
C2366      H2378   1.084       .  S
C2367      C2368   1.347       .  D
C2367      H2379   1.086       .  S
C2368      C2369   1.475       .  S
C2368      H2380   1.086       .  S
C2369      C2370   1.401       .  A
C2369      C2374   1.406       .  A
C2370      C2371   1.394       .  A
C2370      H2381   1.083       .  S
C2371      C2372   1.403       .  A
C2371      H2382   1.084       .  S
C2372      C2373   1.403       .  A
C2373      C2374   1.398       .  A
C2373      H2383   1.083       .  S
C2374      H2384   1.083       .  S
C2385      C2386   1.407       .  A
C2385      C2390   1.406       .  A
C2386      C2387   1.402       .  A
C2386      H2399   1.083   1_556  S
C2387      C2388   1.404       .  A
C2387      H2400   1.083       .  S
C2388      C2389   1.409       .  A
C2388      C2391   1.495       .  S
C2389      C2390   1.405       .  A
C2389      H2401   1.082       .  S
C2390      H2402   1.083       .  S
C2391      C2392   1.349       .  D
C2391      H2403   1.086       .  S
C2392      C2393   1.494       .  S
C2392      H2404   1.087       .  S
C2393      C2394   1.403       .  A
C2393      C2398   1.409       .  A
C2394      C2395   1.400       .  A
C2394      H2405   1.083       .  S
C2395      C2396   1.407       .  A
C2395      H2406   1.083       .  S
C2396      C2397   1.408       .  A
C2397      C2398   1.407       .  A
C2397      H2407   1.083       .  S
C2398      H2408   1.082       .  S
C2409      C2410   1.406       .  A
C2409      C2414   1.406       .  A
C2410      C2411   1.398       .  A
C2410      H2423   1.083       .  S
C2411      C2412   1.405       .  A
C2411      H2424   1.083       .  S
C2412      C2413   1.412       .  A
C2412      C2415   1.498       .  S
C2413      C2414   1.404       .  A
C2413      H2425   1.079       .  S
C2414      H2426   1.083       .  S
C2415      C2416   1.351       .  D
C2415      H2427   1.085       .  S
C2416      C2417   1.493       .  S
C2416      H2428   1.082       .  S
C2417      C2418   1.404       .  A
C2417      C2422   1.409       .  A
C2418      C2419   1.399       .  A
C2418      H2429   1.083       .  S
C2419      C2420   1.406       .  A
C2419      H2430   1.083       .  S
C2420      C2421   1.407       .  A
C2421      C2422   1.403       .  A
C2421      H2431   1.083       .  S
C2422      H2432   1.082       .  S
C2433      C2434   1.406       .  A
C2433      C2438   1.406       .  A
C2434      C2435   1.396       .  A
C2434      H2447   1.083       .  S
C2435      C2436   1.402       .  A
C2435      H2448   1.084       .  S
C2436      C2437   1.409       .  A
C2436      C2439   1.489       .  S
C2437      C2438   1.402       .  A
C2437      H2449   1.081       .  S
C2438      H2450   1.083       .  S
C2439      C2440   1.348       .  D
C2439      H2451   1.084       .  S
C2440      C2441   1.491       .  S
C2440      H2452   1.085       .  S
C2441      C2442   1.403       .  A
C2441      C2446   1.410       .  A
C2442      C2443   1.398       .  A
C2442      H2453   1.084       .  S
C2443      C2444   1.407       .  A
C2443      H2454   1.083       .  S
C2444      C2445   1.405       .  A
C2445      C2446   1.401       .  A
C2445      H2455   1.083       .  S
C2446      H2456   1.081       .  S
C2457      C2458   1.407       .  A
C2457      C2462   1.404       .  A
C2458      C2459   1.397       .  A
C2458      H2471   1.083       .  S
C2459      C2460   1.403       .  A
C2459      H2472   1.083       .  S
C2460      C2461   1.410       .  A
C2460      C2463   1.491       .  S
C2461      C2462   1.400       .  A
C2461      H2473   1.081       .  S
C2462      H2474   1.083       .  S
C2463      C2464   1.348       .  D
C2463      H2475   1.083       .  S
C2464      C2465   1.493       .  S
C2464      H2476   1.084       .  S
C2465      C2466   1.404       .  A
C2465      C2470   1.411       .  A
C2466      C2467   1.395       .  A
C2466      H2477   1.083       .  S
C2467      C2468   1.404       .  A
C2467      H2478   1.083       .  S
C2468      C2469   1.406       .  A
C2469      C2470   1.403       .  A
C2469      H2479   1.083       .  S
C2470      H2480   1.080       .  S
C2481      C2482   1.406       .  A
C2481      C2486   1.407       .  A
C2482      C2483   1.400       .  A
C2482      H2495   1.083       .  S
C2483      C2484   1.405       .  A
C2483      H2496   1.084       .  S
C2484      C2485   1.407       .  A
C2484      C2487   1.490       .  S
C2485      C2486   1.400       .  A
C2485      H2497   1.081       .  S
C2486      H2498   1.083       .  S
C2487      C2488   1.350       .  D
C2487      H2499   1.086       .  S
C2488      C2489   1.490       .  S
C2488      H2500   1.086       .  S
C2489      C2490   1.404       .  A
C2489      C2494   1.407       .  A
C2490      C2491   1.400       .  A
C2490      H2501   1.083       .  S
C2491      C2492   1.406       .  A
C2491      H2502   1.083       .  S
C2492      C2493   1.407       .  A
C2493      C2494   1.400       .  A
C2493      H2503   1.083       .  S
C2494      H2504   1.082       .  S
C2505      C2506   1.406       .  A
C2505      C2510   1.405       .  A
C2506      C2507   1.401       .  A
C2506      H2519   1.083       .  S
C2507      C2508   1.405       .  A
C2507      H2520   1.083       .  S
C2508      C2509   1.408       .  A
C2508      C2511   1.492       .  S
C2509      C2510   1.398       .  A
C2509      H2521   1.081       .  S
C2510      H2522   1.083       .  S
C2511      C2512   1.350       .  D
C2511      H2523   1.083       .  S
C2512      C2513   1.493   1_655  S
C2512      H2524   1.085   1_655  S
C2513      C2514   1.404       .  A
C2513      C2518   1.411   1_455  A
C2514      C2515   1.395       .  A
C2514      H2525   1.084       .  S
C2515      C2516   1.404       .  A
C2515      H2526   1.083       .  S
C2516      C2517   1.406       .  A
C2517      C2518   1.403   1_455  A
C2517      H2527   1.083   1_455  S
C2518      H2528   1.080       .  S
C2529      C2530   1.405       .  A
C2529      C2534   1.407       .  A
C2530      C2531   1.400       .  A
C2530      H2543   1.083       .  S
C2531      C2532   1.404       .  A
C2531      H2544   1.083       .  S
C2532      C2533   1.403       .  A
C2532      C2535   1.479       .  S
C2533      C2534   1.393       .  A
C2533      H2545   1.083       .  S
C2534      H2546   1.083       .  S
C2535      C2536   1.347       .  D
C2535      H2547   1.086       .  S
C2536      C2537   1.478       .  S
C2536      H2548   1.086       .  S
C2537      C2538   1.403       .  A
C2537      C2542   1.404       .  A
C2538      C2539   1.399       .  A
C2538      H2549   1.083       .  S
C2539      C2540   1.404       .  A
C2539      H2550   1.083       .  S
C2540      C2541   1.405       .  A
C2541      C2542   1.393       .  A
C2541      H2551   1.083       .  S
C2542      H2552   1.083       .  S
C2553      C2554   1.406       .  A
C2553      C2558   1.405       .  A
C2554      C2555   1.397       .  A
C2554      H2567   1.083       .  S
C2555      C2556   1.403       .  A
C2555      H2568   1.084       .  S
C2556      C2557   1.411       .  A
C2556      C2559   1.492       .  S
C2557      C2558   1.402       .  A
C2557      H2569   1.081       .  S
C2558      H2570   1.083       .  S
C2559      C2560   1.348       .  D
C2559      H2571   1.086       .  S
C2560      C2561   1.489       .  S
C2560      H2572   1.085       .  S
C2561      C2562   1.402       .  A
C2561      C2566   1.410   1_655  A
C2562      C2563   1.398   1_565  A
C2562      H2573   1.084   1_565  S
C2563      C2564   1.407   1_645  A
C2563      H2574   1.083       .  S
C2564      C2565   1.405       .  A
C2565      C2566   1.402       .  A
C2565      H2575   1.084       .  S
C2566      H2576   1.081       .  S
C2577      C2578   1.401   1_655  A
C2577      C2582   1.402   1_554  A
C2578      C2579   1.400       .  A
C2578      H2591   1.083       .  S
C2579      C2580   1.405   1_554  A
C2579      H2592   1.083       .  S
C2580      C2581   1.404   1_455  A
C2580      C2583   1.478       .  S
C2581      C2582   1.392       .  A
C2581      H2593   1.083       .  S
C2582      H2594   1.084       .  S
C2583      C2584   1.349   1_455  D
C2583      H2595   1.086       .  S
C2584      C2585   1.478   1_665  S
C2584      H2596   1.086       .  S
C2585      C2586   1.403   1_455  A
C2585      C2590   1.404   1_556  A
C2586      C2587   1.398   1_655  A
C2586      H2597   1.083       .  S
C2587      C2588   1.404       .  A
C2587      H2598   1.083   1_455  S
C2588      C2589   1.405   1_556  A
C2589      C2590   1.393       .  A
C2589      H2599   1.083       .  S
C2590      H2600   1.082       .  S
C2601      C2602   1.406       .  A
C2601      C2606   1.408       .  A
C2602      C2603   1.403       .  A
C2602      H2615   1.083       .  S
C2603      C2604   1.407       .  A
C2603      H2616   1.083       .  S
C2604      C2605   1.406       .  A
C2604      C2607   1.492       .  S
C2605      C2606   1.399       .  A
C2605      H2617   1.082   1_655  S
C2606      H2618   1.083       .  S
C2607      C2608   1.351   1_655  D
C2607      H2619   1.086       .  S
C2608      C2609   1.491       .  S
C2608      H2620   1.086       .  S
C2609      C2610   1.405       .  A
C2609      C2614   1.407       .  A
C2610      C2611   1.402       .  A
C2610      H2621   1.083       .  S
C2611      C2612   1.406       .  A
C2611      H2622   1.083       .  S
C2612      C2613   1.408       .  A
C2613      C2614   1.401       .  A
C2613      H2623   1.083       .  S
C2614      H2624   1.082   1_455  S
C2625      C2626   1.405       .  A
C2625      C2630   1.405       .  A
C2626      C2627   1.398       .  A
C2626      H2639   1.083       .  S
C2627      C2628   1.402       .  A
C2627      H2640   1.083       .  S
C2628      C2629   1.408       .  A
C2628      C2631   1.485       .  S
C2629      C2630   1.400       .  A
C2629      H2641   1.082       .  S
C2630      H2642   1.083       .  S
C2631      C2632   1.346       .  D
C2631      H2643   1.085       .  S
C2632      C2633   1.487       .  S
C2632      H2644   1.086       .  S
C2633      C2634   1.403       .  A
C2633      C2638   1.408       .  A
C2634      C2635   1.397       .  A
C2634      H2645   1.083       .  S
C2635      C2636   1.406       .  A
C2635      H2646   1.083       .  S
C2636      C2637   1.406       .  A
C2637      C2638   1.400       .  A
C2637      H2647   1.083       .  S
C2638      H2648   1.082       .  S
C2649      C2650   1.405       .  A
C2649      C2654   1.406       .  A
C2650      C2651   1.402       .  A
C2650      H2663   1.083       .  S
C2651      C2652   1.405       .  A
C2651      H2664   1.083       .  S
C2652      C2653   1.407       .  A
C2652      C2655   1.491       .  S
C2653      C2654   1.401       .  A
C2653      H2665   1.082       .  S
C2654      H2666   1.083       .  S
C2655      C2656   1.351       .  D
C2655      H2667   1.086       .  S
C2656      C2657   1.493       .  S
C2656      H2668   1.086       .  S
C2657      C2658   1.407       .  A
C2657      C2662   1.406       .  A
C2658      C2659   1.403       .  A
C2658      H2669   1.083       .  S
C2659      C2660   1.405   1_545  A
C2659      H2670   1.083   1_545  S
C2660      C2661   1.408   1_565  A
C2661      C2662   1.400       .  A
C2661      H2671   1.083       .  S
C2662      H2672   1.082       .  S
C2673      C2674   1.408       .  A
C2673      C2678   1.403       .  A
C2674      C2675   1.395       .  A
C2674      H2687   1.084       .  S
C2675      C2676   1.401       .  A
C2675      H2688   1.084       .  S
C2676      C2677   1.413       .  A
C2676      C2679   1.492       .  S
C2677      C2678   1.405       .  A
C2677      H2689   1.081       .  S
C2678      H2690   1.083       .  S
C2679      C2680   1.346       .  D
C2679      H2691   1.083       .  S
C2680      C2681   1.494       .  S
C2680      H2692   1.085       .  S
C2681      C2682   1.401       .  A
C2681      C2686   1.414       .  A
C2682      C2683   1.393       .  A
C2682      H2693   1.084       .  S
C2683      C2684   1.407       .  A
C2683      H2694   1.083       .  S
C2684      C2685   1.404       .  A
C2685      C2686   1.407       .  A
C2685      H2695   1.083       .  S
C2686      H2696   1.080       .  S
C2697      C2698   1.406       .  A
C2697      C2702   1.406       .  A
C2698      C2699   1.398       .  A
C2698      H2711   1.083       .  S
C2699      C2700   1.403       .  A
C2699      H2712   1.084       .  S
C2700      C2701   1.409       .  A
C2700      C2703   1.491       .  S
C2701      C2702   1.402       .  A
C2701      H2713   1.081       .  S
C2702      H2714   1.083       .  S
C2703      C2704   1.348       .  D
C2703      H2715   1.085       .  S
C2704      C2705   1.492       .  S
C2704      H2716   1.085       .  S
C2705      C2706   1.403       .  A
C2705      C2710   1.410       .  A
C2706      C2707   1.397       .  A
C2706      H2717   1.084       .  S
C2707      C2708   1.406       .  A
C2707      H2718   1.083       .  S
C2708      C2709   1.406       .  A
C2709      C2710   1.403       .  A
C2709      H2719   1.083       .  S
C2710      H2720   1.081       .  S
C2721      C2722   1.403       .  A
C2721      C2726   1.406   1_556  A
C2722      C2723   1.399       .  A
C2722      H2735   1.083       .  S
C2723      C2724   1.405       .  A
C2723      H2736   1.083       .  S
C2724      C2725   1.404   1_556  A
C2724      C2727   1.481       .  S
C2725      C2726   1.393       .  A
C2725      H2737   1.082       .  S
C2726      H2738   1.084       .  S
C2727      C2728   1.349       .  D
C2727      H2739   1.086       .  S
C2728      C2729   1.478       .  S
C2728      H2740   1.085   1_556  S
C2729      C2730   1.404   1_556  A
C2729      C2734   1.405       .  A
C2730      C2731   1.399       .  A
C2730      H2741   1.084       .  S
C2731      C2732   1.401       .  A
C2731      H2742   1.083       .  S
C2732      C2733   1.401   1_554  A
C2733      C2734   1.393       .  A
C2733      H2743   1.083       .  S
C2734      H2744   1.083       .  S
C2745      C2746   1.405       .  A
C2745      C2750   1.407       .  A
C2746      C2747   1.398       .  A
C2746      H2759   1.083       .  S
C2747      C2748   1.404       .  A
C2747      H2760   1.083       .  S
C2748      C2749   1.408       .  A
C2748      C2751   1.489       .  S
C2749      C2750   1.400       .  A
C2749      H2761   1.081       .  S
C2750      H2762   1.083       .  S
C2751      C2752   1.347       .  D
C2751      H2763   1.086       .  S
C2752      C2753   1.484       .  S
C2752      H2764   1.085       .  S
C2753      C2754   1.401       .  A
C2753      C2758   1.409       .  A
C2754      C2755   1.396       .  A
C2754      H2765   1.083       .  S
C2755      C2756   1.406       .  A
C2755      H2766   1.084       .  S
C2756      C2757   1.403       .  A
C2757      C2758   1.402       .  A
C2757      H2767   1.083       .  S
C2758      H2768   1.082       .  S
C2769      C2770   1.406   1_565  A
C2769      C2774   1.407       .  A
C2770      C2771   1.398       .  A
C2770      H2783   1.083       .  S
C2771      C2772   1.402       .  A
C2771      H2784   1.083   1_655  S
C2772      C2773   1.410       .  A
C2772      C2775   1.491       .  S
C2773      C2774   1.407   1_545  A
C2773      H2785   1.083       .  S
C2774      H2786   1.083       .  S
C2775      C2776   1.348   1_655  D
C2775      H2787   1.086   1_655  S
C2776      C2777   1.494       .  S
C2776      H2788   1.087   1_455  S
C2777      C2778   1.404       .  A
C2777      C2782   1.409       .  A
C2778      C2779   1.401       .  A
C2778      H2789   1.083       .  S
C2779      C2780   1.408       .  A
C2779      H2790   1.083       .  S
C2780      C2781   1.407       .  A
C2781      C2782   1.404       .  A
C2781      H2791   1.083       .  S
C2782      H2792   1.082       .  S
C2793      C2794   1.407       .  A
C2793      C2798   1.403       .  A
C2794      C2795   1.393       .  A
C2794      H2807   1.083       .  S
C2795      C2796   1.399       .  A
C2795      H2808   1.083       .  S
C2796      C2797   1.409       .  A
C2796      C2799   1.479       .  S
C2797      C2798   1.398       .  A
C2797      H2809   1.082       .  S
C2798      H2810   1.083       .  S
C2799      C2800   1.341       .  D
C2799      H2811   1.085       .  S
C2800      C2801   1.480       .  S
C2800      H2812   1.086       .  S
C2801      C2802   1.399       .  A
C2801      C2806   1.409       .  A
C2802      C2803   1.392       .  A
C2802      H2813   1.083       .  S
C2803      C2804   1.406       .  A
C2803      H2814   1.083       .  S
C2804      C2805   1.404       .  A
C2805      C2806   1.399       .  A
C2805      H2815   1.082       .  S
C2806      H2816   1.082       .  S
C2817      C2818   1.406       .  A
C2817      C2822   1.407       .  A
C2818      C2819   1.396       .  A
C2818      H2831   1.083       .  S
C2819      C2820   1.402       .  A
C2819      H2832   1.084       .  S
C2820      C2821   1.411       .  A
C2820      C2823   1.492       .  S
C2821      C2822   1.407       .  A
C2821      H2833   1.081       .  S
C2822      H2834   1.083       .  S
C2823      C2824   1.350       .  D
C2823      H2835   1.085       .  S
C2824      C2825   1.495       .  S
C2824      H2836   1.085       .  S
C2825      C2826   1.404       .  A
C2825      C2830   1.411   1_655  A
C2826      C2827   1.402       .  A
C2826      H2837   1.084       .  S
C2827      C2828   1.407   1_655  A
C2827      H2838   1.083       .  S
C2828      C2829   1.405       .  A
C2829      C2830   1.402       .  A
C2829      H2839   1.083       .  S
C2830      H2840   1.081       .  S
C2841      C2842   1.399       .  A
C2841      C2846   1.402       .  A
C2842      C2843   1.401   1_655  A
C2842      H2855   1.083   1_655  S
C2843      C2844   1.407   1_455  A
C2843      H2856   1.083       .  S
C2844      C2845   1.404       .  A
C2844      C2847   1.483   1_655  S
C2845      C2846   1.394       .  A
C2845      H2857   1.082       .  S
C2846      H2858   1.083       .  S
C2847      C2848   1.351   1_455  D
C2847      H2859   1.086       .  S
C2848      C2849   1.482   1_655  S
C2848      H2860   1.085       .  S
C2849      C2850   1.405   1_455  A
C2849      C2854   1.404       .  A
C2850      C2851   1.402       .  A
C2850      H2861   1.083       .  S
C2851      C2852   1.405   1_655  A
C2851      H2862   1.083       .  S
C2852      C2853   1.406       .  A
C2853      C2854   1.393       .  A
C2853      H2863   1.084       .  S
C2854      H2864   1.082       .  S
C2865      C2866   1.404       .  A
C2865      C2870   1.404       .  A
C2866      C2867   1.399       .  A
C2866      H2879   1.083       .  S
C2867      C2868   1.404       .  A
C2867      H2880   1.083       .  S
C2868      C2869   1.408       .  A
C2868      C2871   1.486       .  S
C2869      C2870   1.396       .  A
C2869      H2881   1.081       .  S
C2870      H2882   1.083       .  S
C2871      C2872   1.348       .  D
C2871      H2883   1.086       .  S
C2872      C2873   1.480       .  S
C2872      H2884   1.084       .  S
C2873      C2874   1.402       .  A
C2873      C2878   1.407       .  A
C2874      C2875   1.396       .  A
C2874      H2885   1.084       .  S
C2875      C2876   1.405       .  A
C2875      H2886   1.083       .  S
C2876      C2877   1.404       .  A
C2877      C2878   1.398       .  A
C2877      H2887   1.083       .  S
C2878      H2888   1.082       .  S
C2889      C2890   1.406       .  A
C2889      C2894   1.407       .  A
C2890      C2891   1.404       .  A
C2890      H2903   1.083       .  S
C2891      C2892   1.407       .  A
C2891      H2904   1.083       .  S
C2892      C2893   1.409       .  A
C2892      C2895   1.499       .  S
C2893      C2894   1.401       .  A
C2893      H2905   1.081       .  S
C2894      H2906   1.083       .  S
C2895      C2896   1.354       .  D
C2895      H2907   1.083       .  S
C2896      C2897   1.499       .  S
C2896      H2908   1.084       .  S
C2897      C2898   1.407       .  A
C2897      C2902   1.410       .  A
C2898      C2899   1.401       .  A
C2898      H2909   1.083       .  S
C2899      C2900   1.405       .  A
C2899      H2910   1.083       .  S
C2900      C2901   1.408       .  A
C2901      C2902   1.404       .  A
C2901      H2911   1.083   1_565  S
C2902      H2912   1.080       .  S
C2913      C2914   1.400       .  A
C2913      C2918   1.402       .  A
C2914      C2915   1.399       .  A
C2914      H2927   1.084       .  S
C2915      C2916   1.405       .  A
C2915      H2928   1.083       .  S
C2916      C2917   1.404       .  A
C2916      C2919   1.478       .  S
C2917      C2918   1.392       .  A
C2917      H2929   1.082       .  S
C2918      H2930   1.083       .  S
C2919      C2920   1.349   1_565  D
C2919      H2931   1.086       .  S
C2920      C2921   1.478       .  S
C2920      H2932   1.086   1_545  S
C2921      C2922   1.403       .  A
C2921      C2926   1.403       .  A
C2922      C2923   1.392       .  A
C2922      H2933   1.082       .  S
C2923      C2924   1.406       .  A
C2923      H2934   1.084       .  S
C2924      C2925   1.404       .  A
C2925      C2926   1.399       .  A
C2925      H2935   1.083       .  S
C2926      H2936   1.083       .  S
C2937      C2938   1.408       .  A
C2937      C2942   1.403       .  A
C2938      C2939   1.401       .  A
C2938      H2951   1.083       .  S
C2939      C2940   1.402       .  A
C2939      H2952   1.083       .  S
C2940      C2941   1.404       .  A
C2940      C2943   1.479       .  S
C2941      C2942   1.394       .  A
C2941      H2953   1.083       .  S
C2942      H2954   1.082       .  S
C2943      C2944   1.343       .  D
C2943      H2955   1.086       .  S
C2944      C2945   1.478       .  S
C2944      H2956   1.088       .  S
C2945      C2946   1.401       .  A
C2945      C2950   1.406       .  A
C2946      C2947   1.393       .  A
C2946      H2957   1.083       .  S
C2947      C2948   1.403       .  A
C2947      H2958   1.082       .  S
C2948      C2949   1.407       .  A
C2949      C2950   1.402       .  A
C2949      H2959   1.083       .  S
C2950      H2960   1.083       .  S
C2961      C2962   1.403       .  A
C2961      C2966   1.407       .  A
C2962      C2963   1.402       .  A
C2962      H2975   1.083       .  S
C2963      C2964   1.408       .  A
C2963      H2976   1.083       .  S
C2964      C2965   1.407       .  A
C2964      C2967   1.493       .  S
C2965      C2966   1.396       .  A
C2965      H2977   1.081       .  S
C2966      H2978   1.083       .  S
C2967      C2968   1.353       .  D
C2967      H2979   1.084       .  S
C2968      C2969   1.493       .  S
C2968      H2980   1.084       .  S
C2969      C2970   1.407       .  A
C2969      C2974   1.408       .  A
C2970      C2971   1.401       .  A
C2970      H2981   1.084       .  S
C2971      C2972   1.403       .  A
C2971      H2982   1.083       .  S
C2972      C2973   1.406       .  A
C2973      C2974   1.398       .  A
C2973      H2983   1.084       .  S
C2974      H2984   1.080       .  S
C2985      C2986   1.406       .  A
C2985      C2990   1.409       .  A
C2986      C2987   1.403       .  A
C2986      H2999   1.083       .  S
C2987      C2988   1.406       .  A
C2987      H3000   1.083       .  S
C2988      C2989   1.407       .  A
C2988      C2991   1.494       .  S
C2989      C2990   1.403       .  A
C2989      H3001   1.082       .  S
C2990      H3002   1.083       .  S
C2991      C2992   1.351       .  D
C2991      H3003   1.086       .  S
C2992      C2993   1.493       .  S
C2992      H3004   1.086       .  S
C2993      C2994   1.405       .  A
C2993      C2998   1.407       .  A
C2994      C2995   1.403       .  A
C2994      H3005   1.083       .  S
C2995      C2996   1.407       .  A
C2995      H3006   1.083       .  S
C2996      C2997   1.408       .  A
C2997      C2998   1.402       .  A
C2997      H3007   1.083       .  S
C2998      H3008   1.082       .  S
