geometry optimzed in LAMMPS
_audit_creation_date              2020-12-01 
_audit_creation_method            'lammps2cif' 
_symmetry_space_group_name_H-M    'P1' 
_symmetry_Int_Tables_number       1 
_symmetry_cell_setting            triclinic 
loop_ 
_symmetry_equiv_pos_as_xyz 
  x,y,z 
_cell_length_a                    71.15482966 
_cell_length_b                    29.05208844185171 
_cell_length_c                    36.019079494386396 
_cell_angle_alpha                 89.99970558731245 
_cell_angle_beta                  89.99915574849645 
_cell_angle_gamma                 90.0137110877118 
loop_ 
_atom_site_label 
_atom_site_type_symbol 
_atom_site_fract_x 
_atom_site_fract_y 
_atom_site_fract_z 
_atom_site_charge 
O1          O  0.80331368  0.79273377  0.77774829    -0.83800
O2          O  0.78082369  0.72425363  0.74971440    -0.80900
C3          C  0.76452294  0.73595300  0.76030218     0.99600
O4          O  0.75670473  0.77120127  0.74703791    -0.80900
O5          O  0.75274661  0.85693343  0.71322478    -0.83500
C6          C  0.75948755  0.88672358  0.73511649     1.04200
O7          O  0.77618937  0.88458875  0.74565060    -0.76300
O8          O  0.81229916  0.85906429  0.75488021    -0.76500
C9          C  0.81015569  0.83225202  0.78221382     1.04100
O10         O  0.82591716  0.79362465  0.71104933    -0.83800
O11         O  0.80062593  0.73093499  0.68048346    -0.80900
C12         C  0.78529753  0.71517958  0.66844103     0.99700
O13         O  0.76966867  0.73246672  0.67799992    -0.80900
O14         O  0.76782824  0.81950143  0.64652894    -0.83500
C15         C  0.77135351  0.86157611  0.64147819     1.04100
O16         O  0.77983640  0.88474300  0.66610671    -0.76300
O17         O  0.81535584  0.84894711  0.67530665    -0.76500
C18         C  0.82869197  0.82457536  0.68675832     1.04100
Cr19       Cr  0.80165776  0.76357905  0.72833994     1.93700
Cr20       Cr  0.76349331  0.79566613  0.69744252     1.93200
Cr21       Cr  0.79531791  0.86496535  0.71035227     1.39100
O22         O  0.78683896  0.80789376  0.71159046    -1.21600
O23         O  0.93888679  0.94325893  0.77792823    -0.83800
O24         O  0.96140126  0.01170818  0.74992236    -0.80900
C25         C  0.97769567  0.99998598  0.76052990     0.99600
O26         O  0.98551010  0.96472435  0.74727888    -0.80900
O27         O  0.98945801  0.87898815  0.71344342    -0.83500
C28         C  0.98270270  0.84918781  0.73530964     1.04200
O29         O  0.96600206  0.85136266  0.74584708    -0.76300
O30         O  0.92989469  0.87694271  0.75504299    -0.76500
C31         C  0.93203604  0.90374747  0.78238144     1.04100
O32         O  0.91630288  0.94241307  0.71120402    -0.83800
O33         O  0.94162002  0.00506391  0.68067042    -0.80900
C34         C  0.95695643  0.02079202  0.66864221     0.99700
O35         O  0.97257799  0.00349501  0.67823301    -0.80900
O36         O  0.97440292  0.91647634  0.64674950    -0.83500
C37         C  0.97086653  0.87441105  0.64168448     1.04100
O38         O  0.96237365  0.85124426  0.66629974    -0.76300
O39         O  0.92686365  0.88708367  0.67546859    -0.76500
C40         C  0.91352996  0.91147665  0.68690117     1.04100
Cr41       Cr  0.94056465  0.97241822  0.72852469     1.93700
Cr42       Cr  0.97873137  0.94028270  0.69767132     1.93200
Cr43       Cr  0.94688663  0.87102686  0.71053379     1.39100
O44         O  0.95537859  0.92808529  0.71179050    -1.21600
O45         O  0.80334912  0.94347678  0.96037199    -0.83800
O46         O  0.78086945  0.01192503  0.98844633    -0.80900
C47         C  0.76456331  0.00022379  0.97787833     0.99600
O48         O  0.75674611  0.96496050  0.99113488    -0.80900
O49         O  0.75279064  0.87921299  0.02493231    -0.83500
C50         C  0.75952235  0.84943815  0.00302353     1.04200
O51         O  0.77621967  0.85159726  0.99246175    -0.76300
O52         O  0.81233164  0.87714086  0.98321186    -0.76500
C53         C  0.81018455  0.90396305  0.95588775     1.04100
O54         O  0.82596705  0.94256782  0.02705699    -0.83800
O55         O  0.80068445  0.00524261  0.05765735    -0.80900
C56         C  0.78535718  0.02097759  0.06971214     0.99700
O57         O  0.76972750  0.00367495  0.06016126    -0.80900
O58         O  0.76789407  0.91663364  0.09161698    -0.83500
C59         C  0.77141369  0.87455804  0.09665215     1.04100
O60         O  0.77988424  0.85140229  0.07200556    -0.76300
O61         O  0.81540120  0.88722367  0.06278608    -0.76500
C62         C  0.82873954  0.91160520  0.05133757     1.04100
Cr63       Cr  0.80170590  0.97260941  0.00979132     1.93700
Cr64       Cr  0.76354525  0.94048124  0.04071459     1.93200
Cr65       Cr  0.79535794  0.87120998  0.02775077     1.39100
O66         O  0.78688602  0.92827757  0.02653925    -1.21600
O67         O  0.93885502  0.79245578  0.96048223    -0.83800
O68         O  0.96134456  0.72400268  0.98851740    -0.80900
C69         C  0.97764172  0.73570879  0.97790001     0.99600
O70         O  0.98546727  0.77097499  0.99113169    -0.80900
O71         O  0.98944965  0.85671119  0.02494847    -0.83500
C72         C  0.98270758  0.88650875  0.00307282     1.04200
O73         O  0.96600691  0.88434928  0.99253262    -0.76300
O74         O  0.92989152  0.85880148  0.98333900    -0.76500
C75         C  0.93202133  0.83197446  0.95601267     1.04100
O76         O  0.91626964  0.79337570  0.02719667    -0.83800
O77         O  0.94156587  0.73070703  0.05776793    -0.80900
C78         C  0.95689865  0.71496471  0.06978830     0.99700
O79         O  0.97252482  0.73224237  0.06018450    -0.80900
O80         O  0.97437980  0.81926593  0.09164790    -0.83500
C81         C  0.97085904  0.86133688  0.09670187     1.04100
O82         O  0.96237511  0.88450408  0.07208132    -0.76300
O83         O  0.92685219  0.84870398  0.06291733    -0.76500
C84         C  0.91350619  0.82434578  0.05147334     1.04100
Cr85       Cr  0.94052130  0.76332601  0.00989818     1.93700
Cr86       Cr  0.97869992  0.79543830  0.04073315     1.93200
Cr87       Cr  0.94688252  0.86472169  0.02785018     1.39100
O88         O  0.95535196  0.80765360  0.02661292    -1.21600
O89         O  0.07589109  0.54341647  0.77721267    -0.83800
O90         O  0.05060590  0.48069625  0.80777215    -0.80900
C91         C  0.03527704  0.46492501  0.81980164     0.99600
O92         O  0.01964745  0.48217734  0.81021021    -0.80900
O93         O  0.01778526  0.56921058  0.84166259    -0.83500
C94         C  0.02130127  0.61128995  0.84670741     1.04200
O95         O  0.02977362  0.63446915  0.82207275    -0.76300
O96         O  0.06529875  0.59873410  0.81292316    -0.76500
C97         C  0.07864761  0.57439208  0.80149092     1.04100
O98         O  0.05331133  0.54245207  0.71048718    -0.83800
O99         O  0.03082680  0.47395843  0.73852114    -0.80900
C100        C  0.01452589  0.48562992  0.72791485     0.99700
O101        O  0.00669483  0.52087394  0.74115709    -0.80900
O102        O  0.00270568  0.60661348  0.77495450    -0.83500
C103        C  0.00944355  0.63640886  0.75306270     1.04100
O104        O  0.02614457  0.63427348  0.74252263    -0.76300
O105        O  0.06226731  0.60881120  0.73334561    -0.76500
C106        C  0.06014464  0.58197942  0.70601936     1.04100
Cr107      Cr  0.05164539  0.51331955  0.75990476     1.93700
Cr108      Cr  0.01346351  0.54536130  0.79075155     1.93200
Cr109      Cr  0.04527002  0.61470282  0.77784842     1.39100
O110        O  0.03680894  0.55761775  0.77662038    -1.21600
O111        O  0.16617454  0.69266146  0.77702098    -0.83800
O112        O  0.19149661  0.75531156  0.80756339    -0.80900
C113        C  0.20683592  0.77103763  0.81958067     0.99600
O114        O  0.22245480  0.75373481  0.80998130    -0.80900
O115        O  0.22427984  0.66671464  0.84145728    -0.83500
C116        C  0.22074466  0.62464855  0.84651997     1.04200
O117        O  0.21224892  0.60148511  0.82190770    -0.76300
O118        O  0.17674297  0.63733790  0.81275087    -0.76500
C119        C  0.16340571  0.66171714  0.80131939     1.04100
O120        O  0.18875551  0.69352656  0.71029432    -0.83800
O121        O  0.21127248  0.76196640  0.73830751    -0.80900
C122        C  0.22756618  0.75024500  0.72769512     0.99700
O123        O  0.23537930  0.71497420  0.74093156    -0.80900
O124        O  0.23933124  0.62923963  0.77475392    -0.83500
C125        C  0.23257812  0.59943774  0.75288752     1.04100
O126        O  0.21587432  0.60159175  0.74236432    -0.76300
O127        O  0.17976810  0.62720057  0.73317166    -0.76500
C128        C  0.18190845  0.65401173  0.70583645     1.04100
Cr129      Cr  0.19043649  0.72267288  0.75970277     1.93700
Cr130      Cr  0.22860507  0.69052684  0.79053698     1.93200
Cr131      Cr  0.19676071  0.62127363  0.77767886     1.39100
O132        O  0.20525230  0.67833256  0.77642260    -1.21600
O133        O  0.07595573  0.69247127  0.46121260    -0.83800
O134        O  0.05065052  0.75512313  0.43067543    -0.80900
C135        C  0.03531632  0.77084684  0.41864756     0.99600
O136        O  0.01969290  0.75353267  0.42822671    -0.80900
O137        O  0.01786136  0.66650977  0.39674306    -0.83500
C138        C  0.02139161  0.62444435  0.39168254     1.04200
O139        O  0.02987541  0.60128143  0.41630509    -0.76300
O140        O  0.06538432  0.63714122  0.42547828    -0.76500
C141        C  0.07872163  0.66153798  0.43690650     1.04100
O142        O  0.05336679  0.69331216  0.52793485    -0.83800
O143        O  0.03086465  0.76175288  0.49992103    -0.80900
C144        C  0.01456598  0.75002890  0.51051597     0.99700
O145        O  0.00674857  0.71476332  0.49726392    -0.80900
O146        O  0.00279166  0.62902908  0.46343680    -0.83500
C147        C  0.00953674  0.59923379  0.48531194     1.04100
O148        O  0.02623869  0.60139587  0.49584751    -0.76300
O149        O  0.06234989  0.62699687  0.50505484    -0.76500
C150        C  0.06020750  0.65379922  0.53239291     1.04100
Cr151      Cr  0.05169754  0.72247043  0.47852955     1.93700
Cr152      Cr  0.01352957  0.69032026  0.44766227     1.93200
Cr153      Cr  0.04536037  0.62107341  0.46054144     1.39100
O154        O  0.03687787  0.67813085  0.46179359    -1.21600
O155        O  0.16624651  0.54351045  0.46103624    -0.83800
O156        O  0.19155508  0.48084874  0.43052568    -0.80900
C157        C  0.20689130  0.46511686  0.41851485     0.99600
O158        O  0.22251397  0.48240963  0.42812420    -0.80900
O159        O  0.22436806  0.56943677  0.39665849    -0.83500
C160        C  0.22084350  0.61150478  0.39159858     1.04200
O161        O  0.21235651  0.63467028  0.41621498    -0.76300
O162        O  0.17683836  0.59883678  0.42532110    -0.76500
C163        C  0.16349199  0.57446179  0.43674038     1.04100
O164        O  0.18880312  0.54263367  0.52779145    -0.83800
O165        O  0.21131224  0.47418216  0.49980036    -0.80900
C166        C  0.22760873  0.48589176  0.51041788     0.99700
O167        O  0.23543407  0.52115859  0.49718711    -0.80900
O168        O  0.23941424  0.60689877  0.46338013    -0.83500
C169        C  0.23266169  0.63669140  0.48524958     1.04100
O170        O  0.21595711  0.63452140  0.49576718    -0.76300
O171        O  0.17983723  0.60895783  0.50490045    -0.76500
C172        C  0.18195930  0.58214620  0.53223827     1.04100
Cr173      Cr  0.19049237  0.51348490  0.47838394     1.93700
Cr174      Cr  0.22867685  0.54561466  0.44758028     1.93200
Cr175      Cr  0.19684921  0.61487848  0.46042102     1.39100
O176        O  0.20532410  0.55781606  0.46167751    -1.21600
O177        O  0.66627083  0.19252496  0.77714871    -0.83800
O178        O  0.69155909  0.25522993  0.80771074    -0.80900
C179        C  0.70688654  0.27098635  0.81975812     0.99600
O180        O  0.72251629  0.25370031  0.81020404    -0.80900
O181        O  0.72435455  0.16668061  0.84169522    -0.83500
C182        C  0.72082938  0.12460824  0.84675506     1.04200
O183        O  0.71234825  0.10143049  0.82213115    -0.76300
O184        O  0.67682773  0.13721643  0.81291012    -0.76500
C185        C  0.66349222  0.16157912  0.80144236     1.04100
O186        O  0.68888143  0.19339171  0.71046083    -0.83800
O187        O  0.71136725  0.26188589  0.73848405    -0.80900
C188        C  0.72766849  0.25018315  0.72790151     0.99700
O189        O  0.73548677  0.21494183  0.74117801    -0.80900
O190        O  0.73944258  0.12922129  0.77501555    -0.83500
C191        C  0.73270302  0.09942109  0.75313109     1.04100
O192        O  0.71600238  0.10155351  0.74258983    -0.76300
O193        O  0.67989346  0.12706985  0.73334186    -0.76500
C194        C  0.68203955  0.15387216  0.70600278     1.04100
Cr195      Cr  0.69053183  0.22256701  0.75986142     1.93700
Cr196      Cr  0.72869396  0.19049495  0.79077785     1.93200
Cr197      Cr  0.69687042  0.12118818  0.77787658     1.39100
O198        O  0.70534932  0.17825996  0.77662677    -1.21600
O199        O  0.57584287  0.04380455  0.77699742    -0.83800
O200        O  0.55054215  0.98114795  0.80757800    -0.80900
C201        C  0.53521228  0.96541257  0.81963184     0.99600
O202        O  0.51958534  0.98271406  0.81008052    -0.80900
O203        O  0.51776884  0.06973029  0.84157598    -0.83500
C204        C  0.52130203  0.11179857  0.84663572     1.04200
O205        O  0.52979178  0.13496396  0.82201454    -0.76300
O206        O  0.56530233  0.09912470  0.81276547    -0.76500
C207        C  0.57862990  0.07473481  0.80129936     1.04100
O208        O  0.55322155  0.04296905  0.71032313    -0.83800
O209        O  0.53072431  0.97451002  0.73836675    -0.80900
C210        C  0.51442475  0.98623190  0.72779066     0.99700
O211        O  0.50661621  0.02148918  0.74106276    -0.80900
O212        O  0.50268293  0.10721492  0.77491036    -0.83500
C213        C  0.50942674  0.13701782  0.75303338     1.04100
O214        O  0.52612479  0.13486308  0.74247683    -0.76300
O215        O  0.56222582  0.10928214  0.73319674    -0.76500
C216        C  0.56007204  0.08247878  0.70586021     1.04100
Cr217      Cr  0.55157111  0.01380164  0.75972619     1.93700
Cr218      Cr  0.51341953  0.04592604  0.79065996     1.93200
Cr219      Cr  0.54525840  0.11518889  0.77774632     1.39100
O220        O  0.53676546  0.05813019  0.77649772    -1.21600
O221        O  0.66622584  0.04360338  0.46115799    -0.83800
O222        O  0.69151295  0.98094184  0.43053513    -0.80900
C223        C  0.70684130  0.96520653  0.41848565     0.99600
O224        O  0.72247011  0.98251036  0.42803984    -0.80900
O225        O  0.72430068  0.06955044  0.39657808    -0.83500
C226        C  0.72077734  0.11162446  0.39154041     1.04200
O227        O  0.71230110  0.13477644  0.41618287    -0.76300
O228        O  0.67678135  0.09896053  0.42543134    -0.76500
C229        C  0.66344525  0.07457801  0.43689074     1.04100
O230        O  0.68885202  0.04268704  0.52782740    -0.83800
O231        O  0.71133214  0.97425208  0.49974306    -0.80900
C232        C  0.72763563  0.98596335  0.51032024     0.99700
O233        O  0.73545077  0.02123101  0.49706449    -0.80900
O234        O  0.73940478  0.10697508  0.46325274    -0.83500
C235        C  0.73267364  0.13675414  0.48515688     1.04100
O236        O  0.71597781  0.13459114  0.49572670    -0.76300
O237        O  0.67986999  0.10903351  0.50500342    -0.76500
C238        C  0.68201780  0.08219993  0.53232065     1.04100
Cr239      Cr  0.69049217  0.01356569  0.47840569     1.93700
Cr240      Cr  0.72865040  0.04570532  0.44748130     1.93200
Cr241      Cr  0.69683419  0.11497097  0.46045046     1.39100
O242        O  0.70530876  0.05790467  0.46165716    -1.21600
O243        O  0.57588560  0.19279006  0.46102725    -0.83800
O244        O  0.55060731  0.25550519  0.43044801    -0.80900
C245        C  0.53528024  0.27126485  0.41841336     0.99600
O246        O  0.51964886  0.25398763  0.42798632    -0.80900
O247        O  0.51778274  0.16695861  0.39651405    -0.83500
C248        C  0.52129706  0.12488282  0.39146265     1.04200
O249        O  0.52977324  0.10170994  0.41609132    -0.76300
O250        O  0.56530577  0.13746940  0.42529388    -0.76500
C251        C  0.57865283  0.16181318  0.43675638     1.04100
O252        O  0.55328195  0.19371730  0.52772199    -0.83800
O253        O  0.53081162  0.26220312  0.49968338    -0.80900
C254        C  0.51450927  0.25050959  0.51028068     0.99700
O255        O  0.50668083  0.21526094  0.49702513    -0.80900
O256        O  0.50269247  0.12953562  0.46320687    -0.83500
C257        C  0.50942423  0.09974178  0.48509793     1.04100
O258        O  0.52612503  0.10187528  0.49563972    -0.76300
O259        O  0.56224221  0.12737002  0.50486641    -0.76500
C260        C  0.56010838  0.15419217  0.53219452     1.04100
Cr261      Cr  0.55163388  0.22286333  0.47830995     1.93700
Cr262      Cr  0.51345736  0.19079475  0.44742803     1.93200
Cr263      Cr  0.54526047  0.12147644  0.46033823     1.39100
O264        O  0.53680059  0.17855474  0.46156941    -1.21600
O265        O  0.66630838  0.69258609  0.27713701    -0.83800
O266        O  0.69160473  0.75525943  0.30770702    -0.80900
C267        C  0.70693415  0.77100420  0.31975380     0.99600
O268        O  0.72256224  0.75371530  0.31019221    -0.80900
O269        O  0.72439671  0.66668943  0.34167139    -0.83500
C270        C  0.72086739  0.62461853  0.34672854     1.04200
O271        O  0.71237862  0.60145277  0.32210668    -0.76300
O272        O  0.67686098  0.63727088  0.31289608    -0.76500
C273        C  0.66352746  0.66164248  0.30143098     1.04100
O274        O  0.68891732  0.69345299  0.21044757    -0.83800
O275        O  0.71141049  0.76192703  0.23848134    -0.80900
C276        C  0.72770926  0.75021498  0.22789159     0.99700
O277        O  0.73552354  0.71496211  0.24115652    -0.80900
O278        O  0.73947280  0.62923247  0.27498202    -0.83500
C279        C  0.73272693  0.59943962  0.25309885     1.04100
O280        O  0.71602610  0.60158867  0.24256175    -0.76300
O281        O  0.67992124  0.62713472  0.23332359    -0.76500
C282        C  0.68207025  0.65393931  0.20598634     1.04100
Cr283      Cr  0.69057219  0.72261476  0.25985260     1.93700
Cr284      Cr  0.72873281  0.69051072  0.29075515     1.93200
Cr285      Cr  0.69689953  0.62123077  0.27785617     1.39100
O286        O  0.70538562  0.67829491  0.27660982    -1.21600
O287        O  0.57588325  0.54385727  0.27698840    -0.83800
O288        O  0.55059080  0.48118139  0.30757322    -0.80900
C289        C  0.53526282  0.46543979  0.31963184     0.99600
O290        O  0.51963429  0.48273651  0.31008511    -0.80900
O291        O  0.51781136  0.56976687  0.34156217    -0.83500
C292        C  0.52134048  0.61183970  0.34661117     1.04200
O293        O  0.52982248  0.63500341  0.32197911    -0.76300
O294        O  0.56533610  0.59918766  0.31273989    -0.76500
C295        C  0.57866626  0.57479942  0.30128280     1.04100
O296        O  0.55326328  0.54299064  0.21030987    -0.83800
O297        O  0.53077307  0.47452272  0.23836106    -0.80900
C298        C  0.51447081  0.48622865  0.22778844     0.99700
O299        O  0.50665758  0.52147951  0.24106141    -0.80900
O300        O  0.50271710  0.60721637  0.27488816    -0.83500
C301        C  0.50945598  0.63701365  0.25300008     1.04100
O302        O  0.52615403  0.63486670  0.24244185    -0.76300
O303        O  0.56226006  0.60931474  0.23317221    -0.76500
C304        C  0.56010967  0.58250343  0.20584079     1.04100
Cr305      Cr  0.55161562  0.51383218  0.25971762     1.93700
Cr306      Cr  0.51346127  0.54593972  0.29065193     1.93200
Cr307      Cr  0.54529057  0.61522215  0.27771668     1.39100
O308        O  0.53680511  0.55815522  0.27648259    -1.21600
O309        O  0.66623764  0.54366273  0.96114655    -0.83800
O310        O  0.69151043  0.48095920  0.93053563    -0.80900
C311        C  0.70683479  0.46520525  0.91848166     0.99600
O312        O  0.72246761  0.48249517  0.92802800    -0.80900
O313        O  0.72431539  0.56953332  0.89656246    -0.83500
C314        C  0.72080082  0.61161152  0.89152431     1.04200
O315        O  0.71233129  0.63477558  0.91616770    -0.76300
O316        O  0.67680536  0.59899962  0.92541303    -0.76500
C317        C  0.66346419  0.57463565  0.93687428     1.04100
O318        O  0.68886342  0.54273421  0.02781845    -0.83800
O319        O  0.71132959  0.47426395  0.99974378    -0.80900
C320        C  0.72763651  0.48595600  0.01031428     0.99700
O321        O  0.73545899  0.52120815  0.99704970    -0.80900
O322        O  0.73942851  0.60694344  0.96323857    -0.83500
C323        C  0.73270383  0.63672868  0.98514558     1.04100
O324        O  0.71600638  0.63459191  0.99570980    -0.76300
O325        O  0.67989238  0.60908300  0.00498381    -0.76500
C326        C  0.68203568  0.58225497  0.03230563     1.04100
Cr327      Cr  0.69049742  0.51359813  0.97840067     1.93700
Cr328      Cr  0.72866149  0.54568587  0.94746664     1.93200
Cr329      Cr  0.69685973  0.61499188  0.96043330     1.39100
O330        O  0.70532278  0.55791523  0.96164491    -1.21600
O331        O  0.57590621  0.69286455  0.96101760    -0.83800
O332        O  0.55060267  0.75552325  0.93044349    -0.80900
C333        C  0.53526858  0.77125556  0.91842017     0.99600
O334        O  0.51964394  0.75395552  0.92800825    -0.80900
O335        O  0.51780342  0.66693977  0.89652362    -0.83500
C336        C  0.52133251  0.62487476  0.89145913     1.04200
O337        O  0.52982094  0.60170924  0.91607577    -0.76300
O338        O  0.56533967  0.63754271  0.92527272    -0.76500
C339        C  0.57868082  0.66190167  0.93673903     1.04100
O340        O  0.55330623  0.69374056  0.02771427    -0.83800
O341        O  0.53081192  0.76218652  0.99968393    -0.80900
C342        C  0.51451491  0.75046168  0.01029029     0.99700
O343        O  0.50669822  0.71518974  0.99704747    -0.80900
O344        O  0.50273404  0.62945981  0.96321222    -0.83500
C345        C  0.50947948  0.59966454  0.98508584     1.04100
O346        O  0.52618008  0.60183068  0.99562421    -0.76300
O347        O  0.56228646  0.62741319  0.00484846    -0.76500
C348        C  0.56014407  0.65422583  0.03218051     1.04100
Cr349      Cr  0.55164521  0.72288729  0.97830545     1.93700
Cr350      Cr  0.51347577  0.69074763  0.94744298     1.93200
Cr351      Cr  0.54530476  0.62149205  0.96032208     1.39100
O352        O  0.53682463  0.67855097  0.96156969    -1.21600
O353        O  0.30332165  0.79269285  0.27781109    -0.83800
O354        O  0.28081191  0.72423778  0.24979842    -0.80900
C355        C  0.26451780  0.73595362  0.26041121     0.99600
O356        O  0.25670181  0.77121983  0.24717206    -0.80900
O357        O  0.25274547  0.85695212  0.21333670    -0.83500
C358        C  0.25949850  0.88675828  0.23519958     1.04200
O359        O  0.27620020  0.88459697  0.24573170    -0.76300
O360        O  0.31230730  0.85901714  0.25492825    -0.76500
C361        C  0.31016703  0.83221001  0.28226605     1.04100
O362        O  0.32590620  0.79355921  0.21109026    -0.83800
O363        O  0.30058965  0.73089592  0.18054586    -0.80900
C364        C  0.28525176  0.71516587  0.16852467     0.99700
O365        O  0.26963104  0.73245673  0.17812624    -0.80900
O366        O  0.26780090  0.81946643  0.14664209    -0.83500
C367        C  0.27133479  0.86153203  0.14157470     1.04100
O368        O  0.27982765  0.88470358  0.16618581    -0.76300
O369        O  0.31533754  0.84887311  0.17535115    -0.76500
C370        C  0.32867600  0.82450427  0.18679295     1.04100
Cr371      Cr  0.30164566  0.76353813  0.22840471     1.93700
Cr372      Cr  0.26347556  0.79566328  0.19756417     1.93200
Cr373      Cr  0.29531594  0.86492909  0.21041858     1.39100
O374        O  0.28682776  0.80786815  0.21167792    -1.21600
O375        O  0.43881266  0.94369376  0.27769180    -0.83800
O376        O  0.46129487  0.01218311  0.24964561    -0.80900
C377        C  0.47759676  0.00050493  0.26024253     0.99600
O378        O  0.48542277  0.96525891  0.24699175    -0.80900
O379        O  0.48939890  0.87951632  0.21319835    -0.83500
C380        C  0.48266170  0.84972552  0.23509458     1.04200
O381        O  0.46596024  0.85185553  0.24563282    -0.76300
O382        O  0.42984366  0.87734239  0.25483864    -0.76500
C383        C  0.43197706  0.90416988  0.28216479     1.04100
O384        O  0.41621698  0.94274306  0.21098517    -0.83800
O385        O  0.44150140  0.00545363  0.18040828    -0.80900
C386        C  0.45682903  0.02121934  0.16836861     0.99700
O387        O  0.47245930  0.00395439  0.17794284    -0.80900
O388        O  0.47431436  0.91691467  0.14649313    -0.83500
C389        C  0.47079758  0.87483468  0.14145239     1.04100
O390        O  0.46232070  0.85166424  0.16608692    -0.76300
O391        O  0.42679723  0.88742405  0.17526188    -0.76500
C392        C  0.41345268  0.91177277  0.18670553     1.04100
Cr393      Cr  0.44046938  0.97282800  0.22827502     1.93700
Cr394      Cr  0.47864318  0.94076925  0.19740127     1.93200
Cr395      Cr  0.44683170  0.87144162  0.21032122     1.39100
O396        O  0.45529891  0.92852278  0.21154619    -1.21600
O397        O  0.30330172  0.94355433  0.46033948    -0.83800
O398        O  0.28080062  0.01200163  0.48835082    -0.80900
C399        C  0.26450444  0.00029014  0.47773299     0.99600
O400        O  0.25667888  0.96502574  0.49096793    -0.80900
O401        O  0.25269811  0.87928799  0.52478364    -0.83500
C402        C  0.25944524  0.84949150  0.50291171     1.04200
O403        O  0.27614713  0.85166102  0.49237770    -0.76300
O404        O  0.31226571  0.87721802  0.48321138    -0.76500
C405        C  0.31014049  0.90403913  0.45588012     1.04100
O406        O  0.32587106  0.94266128  0.52707764    -0.83800
O407        O  0.30056839  0.00532009  0.55761397    -0.80900
C408        C  0.28523438  0.02105887  0.56962990     0.99700
O409        O  0.26960975  0.00377276  0.56002519    -0.80900
O410        O  0.26775678  0.91674419  0.59149095    -0.83500
C411        C  0.27127945  0.87467436  0.59654646     1.04100
O412        O  0.27976529  0.85150913  0.57192753    -0.76300
O413        O  0.31528615  0.88732358  0.56278954    -0.76500
C414        C  0.32863025  0.91170461  0.55136698     1.04100
Cr415      Cr  0.30162247  0.97269246  0.50975102     1.93700
Cr416      Cr  0.26344154  0.94056899  0.54057279     1.93200
Cr417      Cr  0.29526451  0.87129624  0.52770757     1.39100
O418        O  0.28679202  0.92836162  0.52646248    -1.21600
O419        O  0.43880181  0.79292642  0.46028517    -0.83800
O420        O  0.46130194  0.72449467  0.48832154    -0.80900
C421        C  0.47760418  0.73621751  0.47774560     0.99600
O422        O  0.48541734  0.77148364  0.49100726    -0.80900
O423        O  0.48936057  0.85722652  0.52482109    -0.83500
C424        C  0.48261905  0.88700565  0.50292775     1.04200
O425        O  0.46592014  0.88483183  0.49237689    -0.76300
O426        O  0.42981009  0.85924169  0.48315026    -0.76500
C427        C  0.43195651  0.83243268  0.45581795     1.04100
O428        O  0.41619947  0.79377472  0.52699095    -0.83800
O429        O  0.44149859  0.73112775  0.55755050    -0.80900
C430        C  0.45682993  0.71540765  0.56959458     0.99700
O431        O  0.47245531  0.73272957  0.56003693    -0.80900
O432        O  0.47427656  0.81976605  0.59150978    -0.83500
C433        C  0.47074659  0.86183470  0.59655762     1.04100
O434        O  0.46226850  0.88498810  0.57192087    -0.76300
O435        O  0.42675903  0.84912270  0.56272310    -0.76500
C436        C  0.41342556  0.82471730  0.55128661     1.04100
Cr437      Cr  0.44046209  0.76377586  0.50969453     1.93700
Cr438      Cr  0.47862141  0.79593894  0.54059806     1.93200
Cr439      Cr  0.44679181  0.86517700  0.52767478     1.39100
O440        O  0.45527583  0.80812005  0.52644185    -1.21600
O441        O  0.80329392  0.29273769  0.27777075    -0.83800
O442        O  0.78080692  0.22425443  0.24973246    -0.80900
C443        C  0.76450467  0.23595363  0.26031225     0.99600
O444        O  0.75668717  0.27119819  0.24703995    -0.80900
O445        O  0.75273234  0.35692785  0.21322318    -0.83500
C446        C  0.75947041  0.38671744  0.23511832     1.04200
O447        O  0.77617085  0.38458245  0.24566094    -0.76300
O448        O  0.81228099  0.35906768  0.25490417    -0.76500
C449        C  0.81013706  0.33225460  0.28223676     1.04100
O450        O  0.82590440  0.29362652  0.21108158    -0.83800
O451        O  0.80061708  0.23093080  0.18050846    -0.80900
C452        C  0.78529012  0.21517736  0.16845671     0.99700
O453        O  0.76966016  0.23246325  0.17800873    -0.80900
O454        O  0.76782241  0.31949666  0.14653522    -0.83500
C455        C  0.77134666  0.36157201  0.14148615     1.04100
O456        O  0.77982669  0.38474008  0.16611798    -0.76300
O457        O  0.81534719  0.34895006  0.17533466    -0.76500
C458        C  0.82868249  0.32458002  0.18679387     1.04100
Cr459      Cr  0.80164318  0.26357938  0.22836355     1.93700
Cr460      Cr  0.76348180  0.29566188  0.19744722     1.93200
Cr461      Cr  0.79530398  0.36496448  0.21037028     1.39100
O462        O  0.78682585  0.30789186  0.21160542    -1.21600
O463        O  0.93890888  0.44325528  0.27791993    -0.83800
O464        O  0.96140566  0.51173511  0.24990566    -0.80900
C465        C  0.97770540  0.50002619  0.26048888     0.99600
O466        O  0.98552129  0.46477643  0.24722127    -0.80900
O467        O  0.98947424  0.37906224  0.21336408    -0.83500
C468        C  0.98273217  0.34924454  0.23523038     1.04200
O469        O  0.96603199  0.35138234  0.24577887    -0.76300
O470        O  0.92992254  0.37693616  0.25502956    -0.76500
C471        C  0.93206338  0.40373803  0.28237014     1.04100
O472        O  0.91630620  0.44241582  0.21122360    -0.83800
O473        O  0.94160563  0.50510205  0.18067601    -0.80900
C474        C  0.95693636  0.52085174  0.16863836     0.99700
O475        O  0.97256296  0.50355980  0.17820207    -0.80900
O476        O  0.97439386  0.41655305  0.14669469    -0.83500
C477        C  0.97086528  0.37448419  0.14162702     1.04100
O478        O  0.96237844  0.35130424  0.16624190    -0.76300
O479        O  0.92686325  0.38710764  0.17546275    -0.76500
C480        C  0.91352941  0.41148442  0.18691857     1.04100
Cr481      Cr  0.94056906  0.47243436  0.22852224     1.93700
Cr482      Cr  0.97873182  0.44034688  0.19761680     1.93200
Cr483      Cr  0.94690130  0.37105359  0.21049769     1.39100
O484        O  0.95538510  0.42812029  0.21176038    -1.21600
O485        O  0.80335331  0.44344338  0.46040921    -0.83800
O486        O  0.78088715  0.51191464  0.48848216    -0.80900
C487        C  0.76458114  0.50023509  0.47789713     0.99600
O488        O  0.75675277  0.46498283  0.49114782    -0.80900
O489        O  0.75276868  0.37923613  0.52492932    -0.83500
C490        C  0.75949466  0.34946067  0.50301530     1.04200
O491        O  0.77619427  0.35159446  0.49246448    -0.76300
O492        O  0.81231355  0.37708115  0.48323411    -0.76500
C493        C  0.81017797  0.40392018  0.45591737     1.04100
O494        O  0.82596336  0.44247318  0.52710104    -0.83800
O495        O  0.80069107  0.50518137  0.55770592    -0.80900
C496        C  0.78536538  0.52093879  0.56975021     0.99700
O497        O  0.76973332  0.50365802  0.56018924    -0.80900
O498        O  0.76787194  0.41660633  0.59162987    -0.83500
C499        C  0.77138187  0.37452369  0.59665858     1.04100
O500        O  0.77985138  0.35136516  0.57201177    -0.76300
O501        O  0.81538225  0.38712583  0.56280922    -0.76500
C502        C  0.82872832  0.41148612  0.55136533     1.04100
Cr503      Cr  0.80171114  0.47256032  0.50983345     1.93700
Cr504      Cr  0.76353789  0.44047974  0.54072876     1.93200
Cr505      Cr  0.79533475  0.37116219  0.52776584     1.39100
O506        O  0.78687807  0.42824455  0.52656500    -1.21600
O507        O  0.93887025  0.29239664  0.46044346    -0.83800
O508        O  0.96137010  0.22394981  0.48845771    -0.80900
C509        C  0.97766578  0.23568294  0.47785074     0.99600
O510        O  0.98548161  0.27095327  0.49109740    -0.80900
O511        O  0.98944330  0.35667536  0.52494568    -0.83500
C512        C  0.98269570  0.38647981  0.50308217     1.04200
O513        O  0.96599354  0.38431836  0.49255033    -0.76300
O514        O  0.92988772  0.35871313  0.48332713    -0.76500
C515        C  0.93202888  0.33190997  0.45598886     1.04100
O516        O  0.91627445  0.29324089  0.52714457    -0.83800
O517        O  0.94158330  0.23058411  0.55770205    -0.80900
C518        C  0.95691867  0.21485785  0.56972464     0.99700
O519        O  0.97254200  0.23216280  0.56013331    -0.80900
O520        O  0.97437900  0.31916887  0.59163136    -0.83500
C521        C  0.97084562  0.36122980  0.59670547     1.04100
O522        O  0.96235545  0.38439988  0.57209514    -0.76300
O523        O  0.92684112  0.34855068  0.56290067    -0.76500
C524        C  0.91350067  0.32419055  0.55143398     1.04100
Cr525      Cr  0.94053629  0.26323446  0.50984622     1.93700
Cr526      Cr  0.97870556  0.29537866  0.54070697     1.93200
Cr527      Cr  0.94687166  0.36462678  0.52784965     1.39100
O528        O  0.95535556  0.30757162  0.52658646    -1.21600
O529        O  0.07596343  0.04334110  0.27722223    -0.83800
O530        O  0.05064406  0.98068155  0.30775702    -0.80900
C531        C  0.03530537  0.96494675  0.31976921     0.99600
O532        O  0.01968521  0.98223364  0.31015748    -0.80900
O533        O  0.01784504  0.06925943  0.34161929    -0.83500
C534        C  0.02137675  0.11132750  0.34667990     1.04200
O535        O  0.02987176  0.13449267  0.32206693    -0.76300
O536        O  0.06538371  0.09865875  0.31294491    -0.76500
C537        C  0.07872657  0.07429801  0.30151228     1.04100
O538        O  0.05339679  0.04244846  0.21048266    -0.83800
O539        O  0.03088038  0.97399753  0.23848771    -0.80900
C540        C  0.01458785  0.98571155  0.22786252     0.99700
O541        O  0.00676962  0.02097911  0.24109197    -0.80900
O542        O  0.00280379  0.10671753  0.27489758    -0.83500
C543        C  0.00956034  0.13651189  0.25302707     1.04100
O544        O  0.02626591  0.13435584  0.24251678    -0.76300
O545        O  0.06237601  0.10877925  0.23336224    -0.76500
C546        C  0.06024345  0.08196468  0.20602733     1.04100
Cr547      Cr  0.05170896  0.01330797  0.25989310     1.93700
Cr548      Cr  0.01353178  0.04543650  0.29069891     1.93200
Cr549      Cr  0.04537214  0.11470306  0.27785390     1.39100
O550        O  0.03688610  0.05764039  0.27659921    -1.21600
O551        O  0.16624108  0.19257235  0.27704161    -0.83800
O552        O  0.19153624  0.25527831  0.30758891    -0.80900
C553        C  0.20686814  0.27103720  0.31961412     0.99600
O554        O  0.22249437  0.25376589  0.31002526    -0.80900
O555        O  0.22434197  0.16674591  0.34149919    -0.83500
C556        C  0.22082033  0.12467172  0.34655502     1.04200
O557        O  0.21234268  0.10149050  0.32192967    -0.76300
O558        O  0.17682545  0.13725725  0.31276327    -0.76500
C559        C  0.16348159  0.16161800  0.30133642     1.04100
O560        O  0.18882601  0.19349035  0.21031700    -0.83800
O561        O  0.21131766  0.26197282  0.23833991    -0.80900
C562        C  0.22761758  0.25028802  0.22773786     0.99700
O563        O  0.23544334  0.21503872  0.24098348    -0.80900
O564        O  0.23941948  0.12930754  0.27480402    -0.83500
C565        C  0.23268003  0.09950176  0.25292457     1.04100
O566        O  0.21597857  0.10163378  0.24238518    -0.76300
O567        O  0.17986083  0.12714329  0.23318602    -0.76500
C568        C  0.18199071  0.15396437  0.20585444     1.04100
Cr569      Cr  0.19049301  0.22263706  0.25972817     1.93700
Cr570      Cr  0.22866916  0.19057198  0.29058316     1.93200
Cr571      Cr  0.19685288  0.12125136  0.27769653     1.39100
O572        O  0.20532274  0.17832941  0.27645312    -1.21600
O573        O  0.07596767  0.19240661  0.96120800    -0.83800
O574        O  0.05066869  0.25507522  0.93067734    -0.80900
C575        C  0.03533524  0.27080953  0.91865518     0.99600
O576        O  0.01971075  0.25351061  0.92824401    -0.80900
O577        O  0.01786058  0.16647219  0.89678782    -0.83500
C578        C  0.02138081  0.12439891  0.89174074     1.04200
O579        O  0.02986199  0.10123915  0.91636900    -0.76300
O580        O  0.06538126  0.13706097  0.92550449    -0.76500
C581        C  0.07872420  0.16145563  0.93691203     1.04100
O582        O  0.05339498  0.19329967  0.02795143    -0.83800
O583        O  0.03089578  0.26175064  0.99993543    -0.80900
C584        C  0.01459451  0.25005298  0.01053455     0.99700
O585        O  0.00677003  0.21478865  0.99729746    -0.80900
O586        O  0.00279427  0.12904545  0.96350370    -0.83500
C587        C  0.00953685  0.09925987  0.98538992     1.04100
O588        O  0.02624023  0.10141309  0.99591727    -0.76300
O589        O  0.06236097  0.12696511  0.00508229    -0.76500
C590        C  0.06023393  0.15378538  0.03241299     1.04100
Cr591      Cr  0.05171881  0.22243874  0.97853851     1.93700
Cr592      Cr  0.01354031  0.19031448  0.94770183     1.93200
Cr593      Cr  0.04535971  0.12103947  0.96058738     1.39100
O594        O  0.03688870  0.17810766  0.96182441    -1.21600
O595        O  0.16626192  0.04348015  0.96104114    -0.83800
O596        O  0.19157103  0.98082889  0.93052081    -0.80900
C597        C  0.20690684  0.96510143  0.91850415     0.99600
O598        O  0.22252970  0.98239729  0.92810929    -0.80900
O599        O  0.22437751  0.06942439  0.89664013    -0.83500
C600        C  0.22084935  0.11149068  0.89157913     1.04200
O601        O  0.21236150  0.13465378  0.91619625    -0.76300
O602        O  0.17684558  0.09881060  0.92532084    -0.76500
C603        C  0.16350264  0.07442672  0.93674351     1.04100
O604        O  0.18882724  0.04261457  0.02778642    -0.83800
O605        O  0.21133498  0.97416997  0.99978880    -0.80900
C606        C  0.22763012  0.98588960  0.01040644     0.99700
O607        O  0.23545343  0.02115542  0.99716885    -0.80900
O608        O  0.23942707  0.10689364  0.96335455    -0.83500
C609        C  0.23267502  0.13668662  0.98522403     1.04100
O610        O  0.21597128  0.13451404  0.99574661    -0.76300
O611        O  0.17985497  0.10893596  0.00490059    -0.76500
C612        C  0.18198513  0.08212757  0.03223831     1.04100
Cr613      Cr  0.19051141  0.01346520  0.97837907     1.93700
Cr614      Cr  0.22869122  0.04560559  0.94756157     1.93200
Cr615      Cr  0.19686036  0.11486046  0.96041070     1.39100
O616        O  0.20533886  0.05780076  0.96166546    -1.21600
O617        O  0.30330931  0.29272871  0.77780206    -0.83800
O618        O  0.28081622  0.22424340  0.74978725    -0.80900
C619        C  0.26451738  0.23594285  0.76038400     0.99600
O620        O  0.25669673  0.27119361  0.74712909    -0.80900
O621        O  0.25273083  0.35691064  0.71328143    -0.83500
C622        C  0.25947165  0.38673072  0.73514643     1.04200
O623        O  0.27617312  0.38460276  0.74568734    -0.76300
O624        O  0.31228497  0.35906061  0.75491743    -0.76500
C625        C  0.31014868  0.33225233  0.78225524     1.04100
O626        O  0.32590516  0.29360410  0.71109828    -0.83800
O627        O  0.30060608  0.23090125  0.68054706    -0.80900
C628        C  0.28527374  0.21514792  0.66851869     0.99700
O629        O  0.26964802  0.23242954  0.67809999    -0.80900
O630        O  0.26780802  0.31943482  0.64660250    -0.83500
C631        C  0.27133310  0.36150512  0.64153529     1.04100
O632        O  0.27981788  0.38468941  0.66614904    -0.76300
O633        O  0.31533384  0.34890238  0.67534640    -0.76500
C634        C  0.32867446  0.32455052  0.68680174     1.04100
Cr635      Cr  0.30164676  0.26356061  0.72840010     1.93700
Cr636      Cr  0.26347686  0.29563430  0.69752379     1.93200
Cr637      Cr  0.29530102  0.36494279  0.71039471     1.39100
O638        O  0.28682363  0.30787082  0.71165579    -1.21600
O639        O  0.43881950  0.44374140  0.77771441    -0.83800
O640        O  0.46130962  0.51221495  0.74966558    -0.80900
C641        C  0.47760936  0.50052355  0.76026454     0.99600
O642        O  0.48542990  0.46526744  0.74701990    -0.80900
O643        O  0.48939747  0.37952562  0.71323037    -0.83500
C644        C  0.48265550  0.34974134  0.73512639     1.04200
O645        O  0.46595272  0.35187737  0.74565512    -0.76300
O646        O  0.42984122  0.37739745  0.75486069    -0.76500
C647        C  0.43197945  0.40422207  0.78218773     1.04100
O648        O  0.41622272  0.44280667  0.71100971    -0.83800
O649        O  0.44151688  0.50549638  0.68042903    -0.80900
C650        C  0.45684745  0.52124659  0.66838950     0.99700
O651        O  0.47247496  0.50397150  0.67796846    -0.80900
O652        O  0.47432205  0.41693345  0.64652060    -0.83500
C653        C  0.47080009  0.37485686  0.64147747     1.04100
O654        O  0.46231651  0.35169332  0.66610795    -0.76300
O655        O  0.42679620  0.38748453  0.67528242    -0.76500
C656        C  0.41345412  0.41183841  0.68673035     1.04100
Cr657      Cr  0.44047954  0.47287384  0.72829706     1.93700
Cr658      Cr  0.47865012  0.44078394  0.69742928     1.93200
Cr659      Cr  0.44682838  0.37148257  0.71034211     1.39100
O660        O  0.45530352  0.42855631  0.71156947    -1.21600
O661        O  0.30327727  0.44360556  0.96030365    -0.83800
O662        O  0.28076002  0.51203621  0.98829239    -0.80900
C663        C  0.26446666  0.50029610  0.97767765     0.99600
O664        O  0.25665087  0.46502396  0.99092192    -0.80900
O665        O  0.25269262  0.37929551  0.02476411    -0.83500
C666        C  0.25944861  0.34949605  0.00290571     1.04200
O667        O  0.27615174  0.35167692  0.99238039    -0.76300
O668        O  0.31226120  0.37729768  0.98320003    -0.76500
C669        C  0.31012690  0.40409933  0.95585905     1.04100
O670        O  0.32585069  0.44278434  0.02703614    -0.83800
O671        O  0.30053077  0.50541403  0.05755577    -0.80900
C672        C  0.28519313  0.52113163  0.06957129     0.99700
O673        O  0.26957225  0.50382188  0.05996983    -0.80900
O674        O  0.26773889  0.41680807  0.09146299    -0.83500
C675        C  0.27127619  0.37474897  0.09653720     1.04100
O676        O  0.27977019  0.35158485  0.07192859    -0.76300
O677        O  0.31528150  0.38745692  0.06277506    -0.76500
C678        C  0.32861955  0.41184772  0.05133791     1.04100
Cr679      Cr  0.30159239  0.47276747  0.00970370     1.93700
Cr680      Cr  0.26341967  0.44060040  0.04053569     1.93200
Cr681      Cr  0.29526320  0.37137214  0.02770065     1.39100
O682        O  0.28677381  0.42842204  0.02643152    -1.21600
O683        O  0.43877996  0.29297194  0.96032059    -0.83800
O684        O  0.46125553  0.22449041  0.98835380    -0.80900
C685        C  0.47756076  0.23617569  0.97776801     0.99600
O686        O  0.48538864  0.27142523  0.99102294    -0.80900
O687        O  0.48937425  0.35715770  0.02482360    -0.83500
C688        C  0.48264381  0.38694593  0.00292581     1.04200
O689        O  0.46594144  0.38481940  0.99238956    -0.76300
O690        O  0.42982037  0.35931831  0.98317665    -0.76500
C691        C  0.43195210  0.33249542  0.95584852     1.04100
O692        O  0.41618480  0.29389041  0.02703350    -0.83800
O693        O  0.44146317  0.23118128  0.05759279    -0.80900
C694        C  0.45679049  0.21542462  0.06962712     0.99700
O695        O  0.47242085  0.23271363  0.06006287    -0.80900
O696        O  0.47428410  0.31975465  0.09152648    -0.83500
C697        C  0.47077082  0.36183290  0.09657030     1.04100
O698        O  0.46229654  0.38499927  0.07193578    -0.76300
O699        O  0.42676715  0.34922788  0.06275023    -0.76500
C700        C  0.41342292  0.32485390  0.05131751     1.04100
Cr701      Cr  0.44043393  0.26382720  0.00973324     1.93700
Cr702      Cr  0.47861024  0.29590410  0.04061472     1.93200
Cr703      Cr  0.44680732  0.36521938  0.02769636     1.39100
O704        O  0.45526734  0.30813983  0.02646947    -1.21600
C705        C  0.34736302  0.39889475  0.06174720    -0.17000
C706        C  0.36242763  0.38058134  0.06605405     0.07100
C707        C  0.37962110  0.35616742  0.06604268     0.08900
C708        C  0.39468240  0.33784134  0.06172308    -0.17800
C709        C  0.42703891  0.34762418  0.91916122    -0.17000
C710        C  0.42503037  0.36066887  0.88762207     0.07100
C711        C  0.42503764  0.37605954  0.85041204     0.08900
C712        C  0.42705718  0.38910122  0.81887411    -0.17800
C713        C  0.31507187  0.34739892  0.81893195    -0.17000
C714        C  0.31708870  0.36046924  0.85046125     0.07100
C715        C  0.31708562  0.37589437  0.88765991     0.08900
C716        C  0.31506204  0.38896154  0.91918780    -0.17800
C717        C  0.34741768  0.33756056  0.67641504    -0.17000
C718        C  0.36247359  0.35593295  0.67210270     0.07100
C719        C  0.37965504  0.38042022  0.67208260     0.08900
C720        C  0.39471081  0.39880405  0.67636475    -0.17800
C721        C  0.24982332  0.30763315  0.99583014    -0.17000
C722        C  0.24669349  0.26715990  0.99410532     0.07100
C723        C  0.24543638  0.21901213  0.99404177     0.08900
C724        C  0.24230471  0.17854002  0.99231145    -0.17800
C725        C  0.25445389  0.20767627  0.78678683    -0.17000
C726        C  0.24583065  0.18401398  0.80866062     0.07100
C727        C  0.23594063  0.15681166  0.83505934     0.08900
C728        C  0.22825249  0.13484172  0.85930609    -0.17800
C729        C  0.09746035  0.14850296  0.92645867    -0.17000
C730        C  0.11251741  0.13017764  0.92209354     0.07100
C731        C  0.12970422  0.10574221  0.92204016     0.08900
C732        C  0.14476405  0.08740417  0.92633033    -0.17800
C733        C  0.26387572  0.35140386  0.12881590    -0.17000
C734        C  0.25618822  0.32943779  0.15306557     0.07100
C735        C  0.24629842  0.30223588  0.17946550     0.08900
C736        C  0.23767665  0.27856900  0.20133812    -0.17800
C737        C  0.17705636  0.09726784  0.06891400    -0.17000
C738        C  0.17503978  0.11033856  0.10044349     0.07100
C739        C  0.17504404  0.12576437  0.13764361     0.08900
C740        C  0.17706496  0.13882941  0.16917422    -0.17800
C741        C  0.06516565  0.13866002  0.06909108    -0.17000
C742        C  0.06718925  0.12559638  0.10062080     0.07100
C743        C  0.06719356  0.11017012  0.13782061     0.08900
C744        C  0.06517516  0.09710057  0.16935071    -0.17800
C745        C  0.09746640  0.08732489  0.31189696    -0.17000
C746        C  0.11251959  0.10572148  0.31617110     0.07100
C747        C  0.12969436  0.13023017  0.31611512     0.08900
C748        C  0.14474452  0.14861378  0.31176217    -0.17800
C749        C  0.01396703  0.13467492  0.37894511    -0.17000
C750        C  0.00626842  0.15662466  0.40318550     0.07100
C751        C  0.99636460  0.18379577  0.42957783     0.08900
C752        C  0.98773263  0.20743380  0.45144827    -0.17800
C753        C  0.84747007  0.39845004  0.56172962    -0.17000
C754        C  0.86252170  0.38006709  0.56603331     0.07100
C755        C  0.87969931  0.35558022  0.56605688     0.08900
C756        C  0.89475473  0.33720454  0.56178537    -0.17800
C757        C  0.92713579  0.38859392  0.31904568    -0.17000
C758        C  0.92511142  0.37553163  0.35057577     0.07100
C759        C  0.92510132  0.36011606  0.38777725     0.08900
C760        C  0.92711098  0.34705228  0.41930974    -0.17800
C761        C  0.99992918  0.17834458  0.24591043    -0.17000
C762        C  0.99678970  0.21880747  0.24414560     0.07100
C763        C  0.99551733  0.26695082  0.24404499     0.08900
C764        C  0.99237233  0.30741254  0.24230201    -0.17800
C765        C  0.97827563  0.35114712  0.10935728    -0.17000
C766        C  0.98598028  0.32918945  0.08512872     0.07100
C767        C  0.99589263  0.30199855  0.05876192     0.08900
C768        C  0.00452936  0.27833719  0.03691505    -0.17800
C769        C  0.81505788  0.34738225  0.31892126    -0.17000
C770        C  0.81707800  0.36041621  0.35046074     0.07100
C771        C  0.81708802  0.37578743  0.38767547     0.08900
C772        C  0.81508388  0.38881232  0.41922090    -0.17800
C773        C  0.89478208  0.39853776  0.17650989    -0.17000
C774        C  0.87971008  0.38024980  0.17217974     0.07100
C775        C  0.86250347  0.35587016  0.17214512     0.08900
C776        C  0.84743114  0.33756429  0.17642311    -0.17800
C777        C  0.45662995  0.67504784  0.59234943    -0.17000
C778        C  0.45654096  0.63946291  0.60943355     0.07100
C779        C  0.45654630  0.59716809  0.62852290     0.08900
C780        C  0.45664289  0.56159040  0.64561662    -0.17800
C781        C  0.28543424  0.06139598  0.59241049    -0.17000
C782        C  0.28553569  0.09696000  0.60952268     0.07100
C783        C  0.28555248  0.13923383  0.62864151     0.08900
C784        C  0.28547213  0.17480142  0.64574913    -0.17800
C785        C  0.22822444  0.10133511  0.37882904    -0.17000
C786        C  0.23591980  0.07938486  0.40307161     0.07100
C787        C  0.24582007  0.05220617  0.42946241     0.08900
C788        C  0.25444724  0.02855765  0.45133103    -0.17800
C789        C  0.39468174  0.83765063  0.56170437    -0.17000
C790        C  0.37961953  0.85596230  0.56604291     0.07100
C791        C  0.36242942  0.88038547  0.56607418     0.08900
C792        C  0.34736896  0.89871986  0.56177629    -0.17800
C793        C  0.45661692  0.06157104  0.14560396    -0.17000
C794        C  0.45651041  0.09715733  0.12852138     0.07100
C795        C  0.45649474  0.13946358  0.10944720     0.08900
C796        C  0.45658105  0.17505753  0.09237434    -0.17800
C797        C  0.42705443  0.88904706  0.31884992    -0.17000
C798        C  0.42503479  0.87600139  0.35038641     0.07100
C799        C  0.42502892  0.86060553  0.38759454     0.08900
C800        C  0.42703977  0.84755847  0.41913215    -0.17800
C801        C  0.28538500  0.56146679  0.09235264    -0.17000
C802        C  0.28548677  0.59702293  0.10947435     0.07100
C803        C  0.28551007  0.63928253  0.12861159     0.08900
C804        C  0.28543836  0.67483618  0.14573705    -0.17800
C805        C  0.24987120  0.92860669  0.24227648    -0.17000
C806        C  0.24673646  0.96907342  0.24401156     0.07100
C807        C  0.24546816  0.01721765  0.24409284     0.08900
C808        C  0.24232354  0.05767905  0.24583552    -0.17800
C809        C  0.23768924  0.95762994  0.03681102    -0.17000
C810        C  0.24631990  0.93398855  0.05867950     0.07100
C811        C  0.25622599  0.90681806  0.08506727     0.08900
C812        C  0.26392657  0.88487175  0.10930585    -0.17800
C813        C  0.31509021  0.84735366  0.31894425    -0.17000
C814        C  0.31710448  0.86042482  0.35047479     0.07100
C815        C  0.31709827  0.87585022  0.38767412     0.08900
C816        C  0.31507380  0.88891340  0.41920369    -0.17800
C817        C  0.39471162  0.89873192  0.17633306    -0.17000
C818        C  0.37965671  0.88034526  0.17204767     0.07100
C819        C  0.36247548  0.85586004  0.17207052     0.08900
C820        C  0.34741867  0.83749525  0.17639142    -0.17800
C821        C  0.47820630  0.85148296  0.10918544    -0.17000
C822        C  0.48590629  0.82953189  0.08494599     0.07100
C823        C  0.49581307  0.80235998  0.05855546     0.08900
C824        C  0.50444726  0.77871996  0.03668811    -0.17800
C825        C  0.49230073  0.42874884  0.99580418    -0.17000
C826        C  0.49544854  0.46920880  0.99403261     0.07100
C827        C  0.49671227  0.51735209  0.99392474     0.08900
C828        C  0.49984529  0.55782064  0.99217255    -0.17800
C829        C  0.48767543  0.52879628  0.78666198    -0.17000
C830        C  0.49631166  0.55243326  0.80853506     0.07100
C831        C  0.50622212  0.57959159  0.83493600     0.08900
C832        C  0.51392446  0.60153048  0.85918476    -0.17800
C833        C  0.64471888  0.58764930  0.92651372    -0.17000
C834        C  0.62966466  0.60601740  0.92219886     0.07100
C835        C  0.61248447  0.63049497  0.92215207     0.08900
C836        C  0.59742768  0.64887270  0.92640360    -0.17800
C837        C  0.73770680  0.45768723  0.03670350    -0.17000
C838        C  0.74634122  0.43404546  0.05857090     0.07100
C839        C  0.75624602  0.40687420  0.08496717     0.08900
C840        C  0.76394285  0.38492347  0.10921244    -0.17800
C841        C  0.49981758  0.67884056  0.24590863    -0.17000
C842        C  0.49668834  0.71930617  0.24413583     0.07100
C843        C  0.49543849  0.76745153  0.24399954     0.08900
C844        C  0.49230654  0.80791492  0.24221331    -0.17800
C845        C  0.48768156  0.70796385  0.45135802    -0.17000
C846        C  0.49632261  0.68432507  0.42949927     0.07100
C847        C  0.50623511  0.65715134  0.40311746     0.08900
C848        C  0.51393658  0.63519561  0.37888128    -0.17800
C849        C  0.50439701  0.45797535  0.20138426    -0.17000
C850        C  0.49576718  0.43433192  0.17950351     0.07100
C851        C  0.48587002  0.40714936  0.15309467     0.08900
C852        C  0.47817721  0.38518913  0.12884447    -0.17800
C853        C  0.56505594  0.63909497  0.06886656    -0.17000
C854        C  0.56706086  0.62605178  0.10040608     0.07100
C855        C  0.56704928  0.61066640  0.13761662     0.08900
C856        C  0.56502854  0.59762826  0.16915440    -0.17800
C857        C  0.67715150  0.63880501  0.16930219    -0.17000
C858        C  0.67513486  0.62576855  0.13776238     0.07100
C859        C  0.67512832  0.61039662  0.10054738     0.08900
C860        C  0.67713287  0.59737029  0.06900226    -0.17800
C861        C  0.64477706  0.64866817  0.31179775    -0.17000
C862        C  0.62970131  0.63037555  0.31606494     0.07100
C863        C  0.61249049  0.60601296  0.31601677     0.08900
C864        C  0.59741616  0.58773757  0.31168255    -0.17800
C865        C  0.75451764  0.52851668  0.45150682    -0.17000
C866        C  0.74588430  0.55215957  0.42963892     0.07100
C867        C  0.73597658  0.57932492  0.40324293     0.08900
C868        C  0.72827559  0.60126926  0.37899928    -0.17800
C869        C  0.74982755  0.42852867  0.24223881    -0.17000
C870        C  0.74670606  0.46899533  0.24403760     0.07100
C871        C  0.74547535  0.51714253  0.24419485     0.08900
C872        C  0.74236034  0.55761270  0.24598796    -0.17800
C873        C  0.53547135  0.42508351  0.34239125    -0.17000
C874        C  0.53557273  0.38950036  0.35947788     0.07100
C875        C  0.53558200  0.34720367  0.37856580     0.08900
C876        C  0.53549166  0.31162058  0.39565294    -0.17800
C877        C  0.50444957  0.27877229  0.53668816    -0.17000
C878        C  0.49581804  0.30240363  0.55856670     0.07100
C879        C  0.48591123  0.32956021  0.58496815     0.08900
C880        C  0.47820993  0.35150241  0.60921211    -0.17800
C881        C  0.51388815  0.10153775  0.35918741    -0.17000
C882        C  0.50618998  0.07959256  0.33493575     0.07100
C883        C  0.49628733  0.05242496  0.30852731     0.08900
C884        C  0.48765777  0.02878158  0.28664697    -0.17800
C885        C  0.49977380  0.05792560  0.49220249    -0.17000
C886        C  0.49663726  0.01746003  0.49396711     0.07100
C887        C  0.49538415  0.96931504  0.49407525     0.08900
C888        C  0.49225421  0.92884586  0.49583279    -0.17800
C889        C  0.70672452  0.81135787  0.34251360    -0.17000
C890        C  0.70660595  0.84694450  0.35959313     0.07100
C891        C  0.70656797  0.88925057  0.37866428     0.08900
C892        C  0.70663805  0.92484372  0.39573625    -0.17800
C893        C  0.64469675  0.08756917  0.42653285    -0.17000
C894        C  0.62963842  0.10591852  0.42221937     0.07100
C895        C  0.61245443  0.13038122  0.42217212     0.08900
C896        C  0.59739735  0.14875924  0.42642204    -0.17800
C897        C  0.72818077  0.13499103  0.35926785    -0.17000
C898        C  0.73588256  0.15693413  0.33501769     0.07100
C899        C  0.74579467  0.18408336  0.30860762     0.08900
C900        C  0.75443328  0.20770397  0.28672336    -0.17800
C901        C  0.74231570  0.17858434  0.49224463    -0.17000
C902        C  0.74544757  0.21905167  0.49400250     0.07100
C903        C  0.74670082  0.26719497  0.49411749     0.08900
C904        C  0.74983962  0.30765765  0.49589385    -0.17800
C905        C  0.53546393  0.81160570  0.89565692    -0.17000
C906        C  0.53554193  0.84718546  0.87856692     0.07100
C907        C  0.53552234  0.88947801  0.85947792     0.08900
C908        C  0.53541744  0.92505903  0.84239037    -0.17800
C909        C  0.49979415  0.17885469  0.74595366    -0.17000
C910        C  0.49667072  0.21932337  0.74418829     0.07100
C911        C  0.49542683  0.26746864  0.74405303     0.08900
C912        C  0.49229808  0.30793265  0.74225942    -0.17800
C913        C  0.48762583  0.20789984  0.95137680    -0.17000
C914        C  0.49626554  0.18425911  0.92951754     0.07100
C915        C  0.50618364  0.15709413  0.90313712     0.08900
C916        C  0.51389200  0.13514856  0.87890374    -0.17800
C917        C  0.56499191  0.09760782  0.66917528    -0.17000
C918        C  0.56701224  0.11064312  0.63763602     0.07100
C919        C  0.56702279  0.12602240  0.60042352     0.08900
C920        C  0.56501777  0.13906172  0.56888247    -0.17800
C921        C  0.50434838  0.95798825  0.70138594    -0.17000
C922        C  0.49571868  0.93434717  0.67950449     0.07100
C923        C  0.48582546  0.90716309  0.65309333     0.08900
C924        C  0.47813973  0.88519818  0.62883821    -0.17800
C925        C  0.70667432  0.31134761  0.84251170    -0.17000
C926        C  0.70656260  0.34693721  0.85958940     0.07100
C927        C  0.70653866  0.38924486  0.87866141     0.08900
C928        C  0.70662106  0.42483896  0.89573388    -0.17800
C929        C  0.67712386  0.13872836  0.66932030    -0.17000
C930        C  0.67510958  0.12568789  0.63778114     0.07100
C931        C  0.67510576  0.11031858  0.60056604     0.08900
C932        C  0.67711249  0.09730038  0.56901945    -0.17800
C933        C  0.59738179  0.08766059  0.81169649    -0.17000
C934        C  0.61245735  0.10593038  0.81602823     0.07100
C935        C  0.62966822  0.13029373  0.81607431     0.08900
C936        C  0.64474269  0.14859271  0.81180697    -0.17800
C937        C  0.76397443  0.35115835  0.62892807    -0.17000
C938        C  0.75627568  0.32920973  0.65317873     0.07100
C939        C  0.74637048  0.30205175  0.67959296     0.08900
C940        C  0.73773730  0.27842747  0.70148283    -0.17800
C941        C  0.20666776  0.31138007  0.34238784    -0.17000
C942        C  0.20658450  0.34694636  0.35949698     0.07100
C943        C  0.20659767  0.38921877  0.37861806     0.08900
C944        C  0.20669599  0.42478094  0.39573256    -0.17800
C945        C  0.23766847  0.45761742  0.53681051    -0.17000
C946        C  0.24630337  0.43396534  0.55866471     0.07100
C947        C  0.25621587  0.40678602  0.58503619     0.08900
C948        C  0.26392150  0.38483667  0.60926660    -0.17800
C949        C  0.25445384  0.70768764  0.28681340    -0.17000
C950        C  0.24583023  0.68402519  0.30868568     0.07100
C951        C  0.23593906  0.65682278  0.33508250     0.08900
C952        C  0.22824953  0.63485412  0.35932756    -0.17800
C953        C  0.24981381  0.80763663  0.49583936    -0.17000
C954        C  0.24668122  0.76716388  0.49412137     0.07100
C955        C  0.24542329  0.71901639  0.49406563     0.08900
C956        C  0.24229158  0.67854388  0.49233883    -0.17800
C957        C  0.03549411  0.92461173  0.34255341    -0.17000
C958        C  0.03558627  0.88904779  0.35966589     0.07100
C959        C  0.03559442  0.84677025  0.37878060     0.08900
C960        C  0.03551083  0.81119815  0.39588237    -0.17800
C961        C  0.09746118  0.64860188  0.42646433    -0.17000
C962        C  0.11251741  0.63027276  0.42210059     0.07100
C963        C  0.12969984  0.60581898  0.42204372     0.08900
C964        C  0.14475565  0.58746035  0.42632974    -0.17800
C965        C  0.98777551  0.52828053  0.28689163    -0.17000
C966        C  0.99640467  0.55193224  0.30876386     0.07100
C967        C  0.00630115  0.57912588  0.33516018     0.08900
C968        C  0.01399178  0.60109230  0.35940607    -0.17800
C969        C  0.99989731  0.55739579  0.49240570    -0.17000
C970        C  0.99675100  0.51693220  0.49415514     0.07100
C971        C  0.99547581  0.46878844  0.49424808     0.08900
C972        C  0.99233251  0.42832311  0.49599534    -0.17800
C973        C  0.20671056  0.92476804  0.89571880    -0.17000
C974        C  0.20660700  0.88920914  0.87859966     0.07100
C975        C  0.20658269  0.84694112  0.85947212     0.08900
C976        C  0.20665296  0.81137817  0.84235800    -0.17800
C977        C  0.17701674  0.59728214  0.56890711    -0.17000
C978        C  0.17498510  0.61036001  0.60043082     0.07100
C979        C  0.17497288  0.62579928  0.63762655     0.08900
C980        C  0.17698474  0.63887385  0.66915661    -0.17800
C981        C  0.24982613  0.42855463  0.74222328    -0.17000
C982        C  0.24666573  0.46900964  0.74395874     0.07100
C983        C  0.24536926  0.51714918  0.74404139     0.08900
C984        C  0.24221334  0.55760554  0.74578765    -0.17800
C985        C  0.22815479  0.60129855  0.87878356    -0.17000
C986        C  0.23585734  0.57934701  0.90301762     0.07100
C987        C  0.24576647  0.55217643  0.92940260     0.08900
C988        C  0.25440096  0.52854123  0.95127077    -0.17800
C989        C  0.26386863  0.85132212  0.62881213    -0.17000
C990        C  0.25616999  0.82935802  0.65304848     0.07100
C991        C  0.24626642  0.80216511  0.67943392     0.08900
C992        C  0.23763428  0.77850996  0.70129817    -0.17800
C993        C  0.03548790  0.42458637  0.84258011    -0.17000
C994        C  0.03559419  0.38901658  0.85968453     0.07100
C995        C  0.03561241  0.34673339  0.87879013     0.08900
C996        C  0.03553193  0.31115829  0.89588793    -0.17800
C997        C  0.06507753  0.59710441  0.66934014    -0.17000
C998        C  0.06710738  0.61016518  0.63781035     0.07100
C999        C  0.06712457  0.62558641  0.60060908     0.08900
C1000       C  0.06512078  0.63865476  0.56907546    -0.17800
C1001       C  0.09738494  0.58745314  0.81186736    -0.17000
C1002       C  0.11243589  0.60586199  0.81613965     0.07100
C1003       C  0.12961137  0.63036889  0.81608722     0.08900
C1004       C  0.14466456  0.64874007  0.81173984    -0.17800
C1005       C  0.97824939  0.38456705  0.62898460    -0.17000
C1006       C  0.98594491  0.40651455  0.65323542     0.07100
C1007       C  0.99584458  0.43369133  0.67963721     0.08900
C1008       C  0.00447080  0.45734478  0.70151254    -0.17800
C1009       C  0.95669917  0.67462931  0.09256934    -0.17000
C1010       C  0.95661659  0.63906246  0.10967673     0.07100
C1011       C  0.95663090  0.59678160  0.12878390     0.08900
C1012       C  0.95673233  0.56120641  0.14587971    -0.17800
C1013       C  0.00452538  0.95744475  0.20145937    -0.17000
C1014       C  0.99588998  0.93380278  0.17959127     0.07100
C1015       C  0.98597786  0.90663317  0.15320359     0.08900
C1016       C  0.97827237  0.88468508  0.12896657    -0.17800
C1017       C  0.99234408  0.92835438  0.99600115    -0.17000
C1018       C  0.99548234  0.96882285  0.99428378     0.07100
C1019       C  0.99675017  0.01696654  0.99422684     0.08900
C1020       C  0.99989428  0.05743097  0.99249313    -0.17800
C1021       C  0.98769842  0.70743433  0.95150095    -0.17000
C1022       C  0.99632048  0.68377735  0.92962922     0.07100
C1023       C  0.00621168  0.65658876  0.90323080     0.08900
C1024       C  0.01390012  0.63463163  0.87898259    -0.17800
C1025       C  0.78550331  0.17481850  0.14570095    -0.17000
C1026       C  0.78561672  0.13923030  0.12862199     0.07100
C1027       C  0.78564331  0.09692574  0.10954625     0.08900
C1028       C  0.78556424  0.06133651  0.09246785    -0.17800
C1029       C  0.72823496  0.10126863  0.87903040    -0.17000
C1030       C  0.73593569  0.07932022  0.90327039     0.07100
C1031       C  0.74584672  0.05214521  0.92965229     0.08900
C1032       C  0.75448699  0.02849745  0.95150457    -0.17800
C1033       C  0.84748285  0.89861863  0.06172228    -0.17000
C1034       C  0.86253573  0.88025450  0.06605122     0.07100
C1035       C  0.87971223  0.85576843  0.06609820     0.08900
C1036       C  0.89476522  0.83738169  0.06183350    -0.17800
C1037       C  0.76401409  0.85119470  0.12892768    -0.17000
C1038       C  0.75631837  0.82924663  0.15318107     0.07100
C1039       C  0.74641387  0.80208780  0.17959353     0.08900
C1040       C  0.73777977  0.77846142  0.20147934    -0.17800
C1041       C  0.74987867  0.80761378  0.99592011    -0.17000
C1042       C  0.74674714  0.76714687  0.99414765     0.07100
C1043       C  0.74549502  0.71900301  0.99402243     0.08900
C1044       C  0.74235751  0.67853908  0.99224883    -0.17800
C1045       C  0.95676324  0.06112690  0.64585956    -0.17000
C1046       C  0.95666447  0.09668614  0.62874133     0.07100
C1047       C  0.95664802  0.13895333  0.60961363     0.08900
C1048       C  0.95672601  0.17451608  0.59249948    -0.17800
C1049       C  0.01397456  0.10103950  0.85947209    -0.17000
C1050       C  0.00628235  0.07907414  0.83522660     0.07100
C1051       C  0.99638730  0.05188538  0.80882351     0.08900
C1052       C  0.98776119  0.02823769  0.78694268    -0.17800
C1053       C  0.92710677  0.88861038  0.81905825    -0.17000
C1054       C  0.92508596  0.87555278  0.85059094     0.07100
C1055       C  0.92508295  0.86014628  0.88779512     0.08900
C1056       C  0.92709855  0.84709537  0.91932996    -0.17800
C1057       C  0.00449789  0.77828368  0.53691322    -0.17000
C1058       C  0.99586661  0.80192891  0.55877996     0.07100
C1059       C  0.98596522  0.82910930  0.58517048     0.08900
C1060       C  0.97827012  0.85106466  0.60941240    -0.17800
C1061       C  0.99980346  0.67823369  0.74596606    -0.17000
C1062       C  0.99667733  0.71870308  0.74421260     0.07100
C1063       C  0.99543755  0.76685205  0.74412068     0.08900
C1064       C  0.99232218  0.80732760  0.74238168    -0.17800
C1065       C  0.78550832  0.67481406  0.64569295    -0.17000
C1066       C  0.78562357  0.63921683  0.62862606     0.07100
C1067       C  0.78565418  0.59690062  0.60956707     0.08900
C1068       C  0.78557665  0.56130258  0.59250035    -0.17800
C1069       C  0.76394829  0.88492798  0.60920634    -0.17000
C1070       C  0.75625100  0.90688075  0.58496276     0.07100
C1071       C  0.74634592  0.93405507  0.55856959     0.08900
C1072       C  0.73771022  0.95769847  0.53670511    -0.17800
C1073       C  0.74984434  0.92853289  0.74224541    -0.17000
C1074       C  0.74671630  0.96899636  0.74405253     0.07100
C1075       C  0.74547245  0.01714181  0.74421975     0.08900
C1076       C  0.74234562  0.05760645  0.74601873    -0.17800
C1077       C  0.81507415  0.84738400  0.81889926    -0.17000
C1078       C  0.81709057  0.86042595  0.85043789     0.07100
C1079       C  0.81709650  0.87581034  0.88765008     0.08900
C1080       C  0.81509046  0.88884620  0.91919253    -0.17800
C1081       C  0.89478494  0.89853988  0.67647132    -0.17000
C1082       C  0.87971461  0.88025039  0.67212955     0.07100
C1083       C  0.86250972  0.85586487  0.67209187     0.08900
C1084       C  0.84743886  0.83755633  0.67637539    -0.17800
C1085       C  0.75445379  0.70769783  0.78671168    -0.17000
C1086       C  0.74581725  0.68407003  0.80859332     0.07100
C1087       C  0.73590714  0.65691316  0.83500018     0.08900
C1088       C  0.72820602  0.63496868  0.85924965    -0.17800
loop_ 
_geom_bond_atom_site_label_1 
_geom_bond_atom_site_label_2 
_geom_bond_distance 
_geom_bond_site_symmetry_2 
_ccdc_geom_bond_type 
O1          Cr19   1.974       .  S
O1            C9   1.257       .  A
O2          Cr19   2.024       .  S
O2            C3   1.267       .  A
C3            O4   1.260       .  A
C3         C1085   1.446       .  S
O4          Cr20   1.982       .  S
O5          Cr20   2.019       .  S
O5            C6   1.265       .  A
C6            O7   1.249       .  A
C6         C1073   1.419       .  S
O7          Cr21   1.948       .  S
O8          Cr21   2.015       .  S
O8            C9   1.265       .  A
C9         C1077   1.436       .  S
O10         Cr19   2.032       .  S
O10          C18   1.270       .  A
O11         Cr19   1.969       .  S
O11          C12   1.260       .  A
C12          O13   1.268       .  A
C12        C1065   1.431       .  S
O13         Cr20   2.014       .  S
O14         Cr20   1.984       .  S
O14          C15   1.261       .  A
C15          O16   1.267       .  A
C15        C1069   1.445       .  S
O16         Cr21   2.021       .  S
O17         Cr21   1.960       .  S
O17          C18   1.254       .  A
C18        C1084   1.436       .  S
Cr19         O22   1.770       .  S
Cr20         O22   1.773       .  S
Cr21         O22   1.765       .  S
O23         Cr41   1.974       .  S
O23          C31   1.257       .  A
O24         Cr41   2.023   1_545  S
O24          C25   1.267   1_545  A
C25          O26   1.260       .  A
C25        C1052   1.446   1_565  S
O26         Cr42   1.982       .  S
O27         Cr42   2.019       .  S
O27          C28   1.265       .  A
C28          O29   1.249       .  A
C28        C1064   1.419       .  S
O29         Cr43   1.948       .  S
O30         Cr43   2.015       .  S
O30          C31   1.265       .  A
C31        C1053   1.436       .  S
O32         Cr41   2.032       .  S
O32          C40   1.270       .  A
O33         Cr41   1.969   1_545  S
O33          C34   1.260       .  A
C34          O35   1.268       .  A
C34        C1045   1.431       .  S
O35         Cr42   2.014   1_545  S
O36         Cr42   1.984       .  S
O36          C37   1.261       .  A
C37          O38   1.267       .  A
C37        C1060   1.445       .  S
O38         Cr43   2.021       .  S
O39         Cr43   1.960       .  S
O39          C40   1.254       .  A
C40        C1081   1.436       .  S
Cr41         O44   1.770       .  S
Cr42         O44   1.773       .  S
Cr43         O44   1.765       .  S
O45         Cr63   1.974   1_556  S
O45          C53   1.257       .  A
O46         Cr63   2.024   1_546  S
O46          C47   1.267       .  A
C47          O48   1.260   1_545  A
C47        C1032   1.446       .  S
O48         Cr64   1.982   1_556  S
O49         Cr64   2.019       .  S
O49          C50   1.265       .  A
C50          O51   1.249   1_554  A
C50        C1041   1.419   1_554  S
O51         Cr65   1.948   1_556  S
O52         Cr65   2.015   1_556  S
O52          C53   1.265       .  A
C53        C1080   1.436       .  S
O54         Cr63   2.032       .  S
O54          C62   1.270       .  A
O55         Cr63   1.969   1_545  S
O55          C56   1.260       .  A
C56          O57   1.268       .  A
C56        C1028   1.431       .  S
O57         Cr64   2.014   1_545  S
O58         Cr64   1.984       .  S
O58          C59   1.261       .  A
C59          O60   1.267       .  A
C59        C1037   1.445       .  S
O60         Cr65   2.021       .  S
O61         Cr65   1.960       .  S
O61          C62   1.254       .  A
C62        C1033   1.436       .  S
Cr63         O66   1.770       .  S
Cr64         O66   1.773       .  S
Cr65         O66   1.765       .  S
O67         Cr85   1.974   1_556  S
O67          C75   1.257       .  A
O68         Cr85   2.023   1_556  S
O68          C69   1.267       .  A
C69          O70   1.260       .  A
C69        C1021   1.446       .  S
O70         Cr86   1.982   1_556  S
O71         Cr86   2.019       .  S
O71          C72   1.265       .  A
C72          O73   1.249   1_554  A
C72        C1017   1.419   1_554  S
O73         Cr87   1.948   1_556  S
O74         Cr87   2.015   1_556  S
O74          C75   1.265       .  A
C75        C1056   1.436       .  S
O76         Cr85   2.032       .  S
O76          C84   1.270       .  A
O77         Cr85   1.969       .  S
O77          C78   1.260       .  A
C78          O79   1.268       .  A
C78        C1009   1.431       .  S
O79         Cr86   2.014       .  S
O80         Cr86   1.984       .  S
O80          C81   1.261       .  A
C81          O82   1.267       .  A
C81        C1016   1.445       .  S
O82         Cr87   2.021       .  S
O83         Cr87   1.960       .  S
O83          C84   1.254       .  A
C84        C1036   1.436       .  S
Cr85         O88   1.770       .  S
Cr86         O88   1.773       .  S
Cr87         O88   1.765       .  S
O89        Cr107   2.032       .  S
O89          C97   1.270       .  A
O90        Cr107   1.969       .  S
O90          C91   1.260       .  A
C91          O92   1.268       .  A
C91         C993   1.431       .  S
O92        Cr108   2.014       .  S
O93        Cr108   1.984       .  S
O93          C94   1.261       .  A
C94          O95   1.266       .  A
C94        C1024   1.445       .  S
O95        Cr109   2.021       .  S
O96        Cr109   1.960       .  S
O96          C97   1.254       .  A
C97        C1001   1.436       .  S
O98        Cr107   1.974       .  S
O98         C106   1.257       .  A
O99        Cr107   2.023       .  S
O99         C100   1.267       .  A
C100        O101   1.260       .  A
C100       C1008   1.446       .  S
O101       Cr108   1.982       .  S
O102       Cr108   2.019       .  S
O102        C103   1.265       .  A
C103        O104   1.249       .  A
C103       C1061   1.419   1_455  S
O104       Cr109   1.948       .  S
O105       Cr109   2.015       .  S
O105        C106   1.265       .  A
C106        C997   1.436       .  S
Cr107       O110   1.770       .  S
Cr108       O110   1.773       .  S
Cr109       O110   1.765       .  S
O111       Cr129   2.032       .  S
O111        C119   1.270       .  A
O112       Cr129   1.969       .  S
O112        C113   1.260       .  A
C113        O114   1.268       .  A
C113        C976   1.431       .  S
O114       Cr130   2.014       .  S
O115       Cr130   1.984       .  S
O115        C116   1.261       .  A
C116        O117   1.267       .  A
C116        C985   1.445       .  S
O117       Cr131   2.021       .  S
O118       Cr131   1.960       .  S
O118        C119   1.254       .  A
C119       C1004   1.436       .  S
O120       Cr129   1.974       .  S
O120        C128   1.257       .  A
O121       Cr129   2.023       .  S
O121        C122   1.267       .  A
C122        O123   1.260       .  A
C122        C992   1.446       .  S
O123       Cr130   1.982       .  S
O124       Cr130   2.019       .  S
O124        C125   1.265       .  A
C125        O126   1.249       .  A
C125        C984   1.419       .  S
O126       Cr131   1.948       .  S
O127       Cr131   2.015       .  S
O127        C128   1.265       .  A
C128        C980   1.436       .  S
Cr129       O132   1.770       .  S
Cr130       O132   1.773       .  S
Cr131       O132   1.765       .  S
O133       Cr151   2.032       .  S
O133        C141   1.270       .  A
O134       Cr151   1.969       .  S
O134        C135   1.260       .  A
C135        O136   1.268       .  A
C135        C960   1.431       .  S
O136       Cr152   2.014       .  S
O137       Cr152   1.984       .  S
O137        C138   1.261       .  A
C138        O139   1.266       .  A
C138        C968   1.445       .  S
O139       Cr153   2.021       .  S
O140       Cr153   1.960       .  S
O140        C141   1.254       .  A
C141        C961   1.436       .  S
O142       Cr151   1.974       .  S
O142        C150   1.257       .  A
O143       Cr151   2.023       .  S
O143        C144   1.267       .  A
C144        O145   1.260       .  A
C144       C1057   1.446       .  S
O145       Cr152   1.982       .  S
O146       Cr152   2.019       .  S
O146        C147   1.265       .  A
C147        O148   1.249       .  A
C147        C969   1.419   1_455  S
O148       Cr153   1.948       .  S
O149       Cr153   2.015       .  S
O149        C150   1.265       .  A
C150       C1000   1.436       .  S
Cr151       O154   1.770       .  S
Cr152       O154   1.773       .  S
Cr153       O154   1.765       .  S
O155       Cr173   2.032       .  S
O155        C163   1.270       .  A
O156       Cr173   1.969       .  S
O156        C157   1.260       .  A
C157        O158   1.268       .  A
C157        C944   1.431       .  S
O158       Cr174   2.014       .  S
O159       Cr174   1.984       .  S
O159        C160   1.261       .  A
C160        O161   1.266       .  A
C160        C952   1.445       .  S
O161       Cr175   2.021       .  S
O162       Cr175   1.960       .  S
O162        C163   1.254       .  A
C163        C964   1.436       .  S
O164       Cr173   1.975       .  S
O164        C172   1.257       .  A
O165       Cr173   2.023       .  S
O165        C166   1.267       .  A
C166        O167   1.260       .  A
C166        C945   1.446       .  S
O167       Cr174   1.982       .  S
O168       Cr174   2.019       .  S
O168        C169   1.265       .  A
C169        O170   1.249       .  A
C169        C956   1.419       .  S
O170       Cr175   1.948       .  S
O171       Cr175   2.015       .  S
O171        C172   1.265       .  A
C172        C977   1.436       .  S
Cr173       O176   1.770       .  S
Cr174       O176   1.773       .  S
Cr175       O176   1.765       .  S
O177       Cr195   2.032       .  S
O177        C185   1.270       .  A
O178       Cr195   1.969       .  S
O178        C179   1.260       .  A
C179        O180   1.268       .  A
C179        C925   1.431       .  S
O180       Cr196   2.014       .  S
O181       Cr196   1.984       .  S
O181        C182   1.261       .  A
C182        O183   1.267       .  A
C182       C1029   1.445       .  S
O183       Cr197   2.021       .  S
O184       Cr197   1.960       .  S
O184        C185   1.254       .  A
C185        C936   1.436       .  S
O186       Cr195   1.974       .  S
O186        C194   1.257       .  A
O187       Cr195   2.024       .  S
O187        C188   1.267       .  A
C188        O189   1.260       .  A
C188        C940   1.446       .  S
O189       Cr196   1.982       .  S
O190       Cr196   2.019       .  S
O190        C191   1.265       .  A
C191        O192   1.249       .  A
C191       C1076   1.419       .  S
O192       Cr197   1.948       .  S
O193       Cr197   2.015       .  S
O193        C194   1.265       .  A
C194        C929   1.436       .  S
Cr195       O198   1.770       .  S
Cr196       O198   1.773       .  S
Cr197       O198   1.765       .  S
O199       Cr217   2.032       .  S
O199        C207   1.270       .  A
O200       Cr217   1.969   1_565  S
O200        C201   1.260       .  A
C201        O202   1.268       .  A
C201        C908   1.431       .  S
O202       Cr218   2.014   1_565  S
O203       Cr218   1.984       .  S
O203        C204   1.261       .  A
C204        O205   1.267       .  A
C204        C916   1.445       .  S
O205       Cr219   2.021       .  S
O206       Cr219   1.960       .  S
O206        C207   1.254       .  A
C207        C933   1.436       .  S
O208       Cr217   1.974       .  S
O208        C216   1.257       .  A
O209       Cr217   2.023   1_565  S
O209        C210   1.267       .  A
C210        O211   1.260   1_565  A
C210        C921   1.446       .  S
O211       Cr218   1.982       .  S
O212       Cr218   2.019       .  S
O212        C213   1.265       .  A
C213        O214   1.249       .  A
C213        C909   1.419       .  S
O214       Cr219   1.948       .  S
O215       Cr219   2.015       .  S
O215        C216   1.265       .  A
C216        C917   1.436       .  S
Cr217       O220   1.770       .  S
Cr218       O220   1.773       .  S
Cr219       O220   1.765       .  S
O221       Cr239   2.032       .  S
O221        C229   1.270       .  A
O222       Cr239   1.969   1_565  S
O222        C223   1.260       .  A
C223        O224   1.268       .  A
C223        C892   1.431       .  S
O224       Cr240   2.013   1_565  S
O225       Cr240   1.984       .  S
O225        C226   1.261       .  A
C226        O227   1.267       .  A
C226        C897   1.445       .  S
O227       Cr241   2.021       .  S
O228       Cr241   1.960       .  S
O228        C229   1.254       .  A
C229        C893   1.436       .  S
O230       Cr239   1.974       .  S
O230        C238   1.257       .  A
O231       Cr239   2.024   1_565  S
O231        C232   1.267       .  A
C232        O233   1.260   1_565  A
C232       C1072   1.446       .  S
O233       Cr240   1.982       .  S
O234       Cr240   2.019       .  S
O234        C235   1.265       .  A
C235        O236   1.249       .  A
C235        C901   1.419       .  S
O236       Cr241   1.948       .  S
O237       Cr241   2.015       .  S
O237        C238   1.265       .  A
C238        C932   1.436       .  S
Cr239       O242   1.770       .  S
Cr240       O242   1.773       .  S
Cr241       O242   1.765       .  S
O243       Cr261   2.032       .  S
O243        C251   1.270       .  A
O244       Cr261   1.969       .  S
O244        C245   1.260       .  A
C245        O246   1.268       .  A
C245        C876   1.431       .  S
O246       Cr262   2.014       .  S
O247       Cr262   1.984       .  S
O247        C248   1.261       .  A
C248        O249   1.267       .  A
C248        C881   1.445       .  S
O249       Cr263   2.021       .  S
O250       Cr263   1.960       .  S
O250        C251   1.254       .  A
C251        C896   1.436       .  S
O252       Cr261   1.974       .  S
O252        C260   1.257       .  A
O253       Cr261   2.024       .  S
O253        C254   1.267       .  A
C254        O255   1.260       .  A
C254        C877   1.446       .  S
O255       Cr262   1.982       .  S
O256       Cr262   2.019       .  S
O256        C257   1.265       .  A
C257        O258   1.249       .  A
C257        C885   1.419       .  S
O258       Cr263   1.948       .  S
O259       Cr263   2.015       .  S
O259        C260   1.265       .  A
C260        C920   1.436       .  S
Cr261       O264   1.770       .  S
Cr262       O264   1.773       .  S
Cr263       O264   1.765       .  S
O265       Cr283   2.032       .  S
O265        C273   1.270       .  A
O266       Cr283   1.969       .  S
O266        C267   1.260       .  A
C267        O268   1.268       .  A
C267        C889   1.431       .  S
O268       Cr284   2.014       .  S
O269       Cr284   1.984       .  S
O269        C270   1.261       .  A
C270        O271   1.267       .  A
C270        C868   1.445       .  S
O271       Cr285   2.021       .  S
O272       Cr285   1.960       .  S
O272        C273   1.254       .  A
C273        C861   1.436       .  S
O274       Cr283   1.974       .  S
O274        C282   1.257       .  A
O275       Cr283   2.024       .  S
O275        C276   1.267       .  A
C276        O277   1.260       .  A
C276       C1040   1.446       .  S
O277       Cr284   1.982       .  S
O278       Cr284   2.019       .  S
O278        C279   1.265       .  A
C279        O280   1.249       .  A
C279        C872   1.419       .  S
O280       Cr285   1.948       .  S
O281       Cr285   2.015       .  S
O281        C282   1.265       .  A
C282        C857   1.436       .  S
Cr283       O286   1.770       .  S
Cr284       O286   1.773       .  S
Cr285       O286   1.765       .  S
O287       Cr305   2.032       .  S
O287        C295   1.270       .  A
O288       Cr305   1.969       .  S
O288        C289   1.260       .  A
C289        O290   1.268       .  A
C289        C873   1.431       .  S
O290       Cr306   2.014       .  S
O291       Cr306   1.984       .  S
O291        C292   1.261       .  A
C292        O293   1.267       .  A
C292        C848   1.445       .  S
O293       Cr307   2.021       .  S
O294       Cr307   1.960       .  S
O294        C295   1.254       .  A
C295        C864   1.436       .  S
O296       Cr305   1.974       .  S
O296        C304   1.257       .  A
O297       Cr305   2.024       .  S
O297        C298   1.267       .  A
C298        O299   1.260       .  A
C298        C849   1.446       .  S
O299       Cr306   1.982       .  S
O300       Cr306   2.019       .  S
O300        C301   1.265       .  A
C301        O302   1.249       .  A
C301        C841   1.419       .  S
O302       Cr307   1.948       .  S
O303       Cr307   2.015       .  S
O303        C304   1.265       .  A
C304        C856   1.436       .  S
Cr305       O308   1.770       .  S
Cr306       O308   1.773       .  S
Cr307       O308   1.765       .  S
O309       Cr327   2.032       .  S
O309        C317   1.270       .  A
O310       Cr327   1.969       .  S
O310        C311   1.260       .  A
C311        O312   1.268       .  A
C311        C928   1.431       .  S
O312       Cr328   2.014       .  S
O313       Cr328   1.984       .  S
O313        C314   1.261       .  A
C314        O315   1.267       .  A
C314       C1088   1.445       .  S
O315       Cr329   2.021       .  S
O316       Cr329   1.960       .  S
O316        C317   1.254       .  A
C317        C833   1.436       .  S
O318       Cr327   1.974   1_554  S
O318        C326   1.257       .  A
O319       Cr327   2.024       .  S
O319        C320   1.267   1_556  A
C320        O321   1.260   1_554  A
C320        C837   1.446       .  S
O321       Cr328   1.982       .  S
O322       Cr328   2.019       .  S
O322        C323   1.265       .  A
C323        O324   1.249       .  A
C323       C1044   1.419       .  S
O324       Cr329   1.948       .  S
O325       Cr329   2.015   1_554  S
O325        C326   1.265       .  A
C326        C860   1.436       .  S
Cr327       O330   1.770       .  S
Cr328       O330   1.773       .  S
Cr329       O330   1.765       .  S
O331       Cr349   2.032       .  S
O331        C339   1.270       .  A
O332       Cr349   1.969       .  S
O332        C333   1.260       .  A
C333        O334   1.268       .  A
C333        C905   1.431       .  S
O334       Cr350   2.014       .  S
O335       Cr350   1.984       .  S
O335        C336   1.261       .  A
C336        O337   1.267       .  A
C336        C832   1.445       .  S
O337       Cr351   2.021       .  S
O338       Cr351   1.960       .  S
O338        C339   1.254       .  A
C339        C836   1.436       .  S
O340       Cr349   1.974   1_554  S
O340        C348   1.257       .  A
O341       Cr349   2.024       .  S
O341        C342   1.267   1_556  A
C342        O343   1.260   1_554  A
C342        C824   1.446       .  S
O343       Cr350   1.982       .  S
O344       Cr350   2.019       .  S
O344        C345   1.265       .  A
C345        O346   1.249       .  A
C345        C828   1.419       .  S
O346       Cr351   1.948       .  S
O347       Cr351   2.015   1_554  S
O347        C348   1.265       .  A
C348        C853   1.436       .  S
Cr349       O352   1.770       .  S
Cr350       O352   1.773       .  S
Cr351       O352   1.765       .  S
O353       Cr371   1.974       .  S
O353        C361   1.257       .  A
O354       Cr371   2.023       .  S
O354        C355   1.267       .  A
C355        O356   1.260       .  A
C355        C949   1.446       .  S
O356       Cr372   1.982       .  S
O357       Cr372   2.019       .  S
O357        C358   1.265       .  A
C358        O359   1.249       .  A
C358        C805   1.419       .  S
O359       Cr373   1.948       .  S
O360       Cr373   2.015       .  S
O360        C361   1.265       .  A
C361        C813   1.436       .  S
O362       Cr371   2.032       .  S
O362        C370   1.270       .  A
O363       Cr371   1.969       .  S
O363        C364   1.260       .  A
C364        O365   1.268       .  A
C364        C804   1.431       .  S
O365       Cr372   2.014       .  S
O366       Cr372   1.984       .  S
O366        C367   1.261       .  A
C367        O368   1.266       .  A
C367        C812   1.445       .  S
O368       Cr373   2.021       .  S
O369       Cr373   1.960       .  S
O369        C370   1.254       .  A
C370        C820   1.436       .  S
Cr371       O374   1.770       .  S
Cr372       O374   1.773       .  S
Cr373       O374   1.765       .  S
O375       Cr393   1.974       .  S
O375        C383   1.257       .  A
O376       Cr393   2.024   1_545  S
O376        C377   1.267       .  A
C377        O378   1.260   1_545  A
C377        C884   1.446       .  S
O378       Cr394   1.982       .  S
O379       Cr394   2.019       .  S
O379        C380   1.265       .  A
C380        O381   1.249       .  A
C380        C844   1.419       .  S
O381       Cr395   1.948       .  S
O382       Cr395   2.015       .  S
O382        C383   1.265       .  A
C383        C797   1.436       .  S
O384       Cr393   2.032       .  S
O384        C392   1.270       .  A
O385       Cr393   1.969   1_545  S
O385        C386   1.260       .  A
C386        O387   1.268       .  A
C386        C793   1.431       .  S
O387       Cr394   2.014   1_545  S
O388       Cr394   1.984       .  S
O388        C389   1.261       .  A
C389        O390   1.267       .  A
C389        C821   1.445       .  S
O390       Cr395   2.021       .  S
O391       Cr395   1.960       .  S
O391        C392   1.254       .  A
C392        C817   1.436       .  S
Cr393       O396   1.770       .  S
Cr394       O396   1.773       .  S
Cr395       O396   1.765       .  S
O397       Cr415   1.974       .  S
O397        C405   1.257       .  A
O398       Cr415   2.023   1_545  S
O398        C399   1.267       .  A
C399        O400   1.260   1_545  A
C399        C788   1.446       .  S
O400       Cr416   1.982       .  S
O401       Cr416   2.019       .  S
O401        C402   1.265       .  A
C402        O403   1.249       .  A
C402        C953   1.419       .  S
O403       Cr417   1.948       .  S
O404       Cr417   2.015       .  S
O404        C405   1.265       .  A
C405        C816   1.436       .  S
O406       Cr415   2.032       .  S
O406        C414   1.270       .  A
O407       Cr415   1.969   1_545  S
O407        C408   1.260       .  A
C408        O409   1.268       .  A
C408        C781   1.431       .  S
O409       Cr416   2.014   1_545  S
O410       Cr416   1.984       .  S
O410        C411   1.261       .  A
C411        O412   1.267       .  A
C411        C989   1.445       .  S
O412       Cr417   2.021       .  S
O413       Cr417   1.960       .  S
O413        C414   1.254       .  A
C414        C792   1.436       .  S
Cr415       O418   1.770       .  S
Cr416       O418   1.773       .  S
Cr417       O418   1.765       .  S
O419       Cr437   1.974       .  S
O419        C427   1.257       .  A
O420       Cr437   2.024       .  S
O420        C421   1.267       .  A
C421        O422   1.260       .  A
C421        C845   1.446       .  S
O422       Cr438   1.982       .  S
O423       Cr438   2.019       .  S
O423        C424   1.265       .  A
C424        O425   1.249       .  A
C424        C888   1.419       .  S
O425       Cr439   1.948       .  S
O426       Cr439   2.015       .  S
O426        C427   1.265       .  A
C427        C800   1.436       .  S
O428       Cr437   2.032       .  S
O428        C436   1.270       .  A
O429       Cr437   1.969       .  S
O429        C430   1.260       .  A
C430        O431   1.268       .  A
C430        C777   1.431       .  S
O431       Cr438   2.014       .  S
O432       Cr438   1.984       .  S
O432        C433   1.261       .  A
C433        O434   1.267       .  A
C433        C924   1.445       .  S
O434       Cr439   2.021       .  S
O435       Cr439   1.960       .  S
O435        C436   1.254       .  A
C436        C789   1.436       .  S
Cr437       O440   1.770       .  S
Cr438       O440   1.773       .  S
Cr439       O440   1.765       .  S
O441       Cr459   1.974       .  S
O441        C449   1.257       .  A
O442       Cr459   2.024       .  S
O442        C443   1.267       .  A
C443        O444   1.260       .  A
C443        C900   1.446       .  S
O444       Cr460   1.982       .  S
O445       Cr460   2.019       .  S
O445        C446   1.265       .  A
C446        O447   1.249       .  A
C446        C869   1.419       .  S
O447       Cr461   1.948       .  S
O448       Cr461   2.015       .  S
O448        C449   1.265       .  A
C449        C769   1.436       .  S
O450       Cr459   2.032       .  S
O450        C458   1.270       .  A
O451       Cr459   1.969       .  S
O451        C452   1.260       .  A
C452        O453   1.268       .  A
C452       C1025   1.431       .  S
O453       Cr460   2.014       .  S
O454       Cr460   1.984       .  S
O454        C455   1.261       .  A
C455        O456   1.267       .  A
C455        C840   1.445       .  S
O456       Cr461   2.021       .  S
O457       Cr461   1.960       .  S
O457        C458   1.254       .  A
C458        C776   1.436       .  S
Cr459       O462   1.770       .  S
Cr460       O462   1.773       .  S
Cr461       O462   1.765       .  S
O463       Cr481   1.974       .  S
O463        C471   1.257       .  A
O464       Cr481   2.023       .  S
O464        C465   1.267       .  A
C465        O466   1.260       .  A
C465        C965   1.446       .  S
O466       Cr482   1.982       .  S
O467       Cr482   2.019       .  S
O467        C468   1.265       .  A
C468        O469   1.249       .  A
C468        C764   1.419       .  S
O469       Cr483   1.948       .  S
O470       Cr483   2.015       .  S
O470        C471   1.265       .  A
C471        C757   1.436       .  S
O472       Cr481   2.032       .  S
O472        C480   1.270       .  A
O473       Cr481   1.969       .  S
O473        C474   1.260       .  A
C474        O475   1.268       .  A
C474       C1012   1.431       .  S
O475       Cr482   2.014       .  S
O476       Cr482   1.984       .  S
O476        C477   1.261       .  A
C477        O478   1.267       .  A
C477        C765   1.445       .  S
O478       Cr483   2.021       .  S
O479       Cr483   1.960       .  S
O479        C480   1.254       .  A
C480        C773   1.436       .  S
Cr481       O484   1.770       .  S
Cr482       O484   1.773       .  S
Cr483       O484   1.765       .  S
O485       Cr503   1.974       .  S
O485        C493   1.257       .  A
O486       Cr503   2.024       .  S
O486        C487   1.267       .  A
C487        O488   1.260       .  A
C487        C865   1.446       .  S
O488       Cr504   1.982       .  S
O489       Cr504   2.019       .  S
O489        C490   1.265       .  A
C490        O491   1.249       .  A
C490        C904   1.419       .  S
O491       Cr505   1.948       .  S
O492       Cr505   2.015       .  S
O492        C493   1.265       .  A
C493        C772   1.436       .  S
O494       Cr503   2.032       .  S
O494        C502   1.270       .  A
O495       Cr503   1.969       .  S
O495        C496   1.260       .  A
C496        O497   1.268       .  A
C496       C1068   1.431       .  S
O497       Cr504   2.014       .  S
O498       Cr504   1.984       .  S
O498        C499   1.261       .  A
C499        O500   1.267       .  A
C499        C937   1.445       .  S
O500       Cr505   2.021       .  S
O501       Cr505   1.960       .  S
O501        C502   1.254       .  A
C502        C753   1.436       .  S
Cr503       O506   1.770       .  S
Cr504       O506   1.773       .  S
Cr505       O506   1.765       .  S
O507       Cr525   1.974       .  S
O507        C515   1.257       .  A
O508       Cr525   2.023       .  S
O508        C509   1.267       .  A
C509        O510   1.260       .  A
C509        C752   1.446       .  S
O510       Cr526   1.982       .  S
O511       Cr526   2.019       .  S
O511        C512   1.265       .  A
C512        O513   1.249       .  A
C512        C972   1.419       .  S
O513       Cr527   1.948       .  S
O514       Cr527   2.015       .  S
O514        C515   1.265       .  A
C515        C760   1.436       .  S
O516       Cr525   2.032       .  S
O516        C524   1.270       .  A
O517       Cr525   1.969       .  S
O517        C518   1.260       .  A
C518        O519   1.268       .  A
C518       C1048   1.431       .  S
O519       Cr526   2.014       .  S
O520       Cr526   1.984       .  S
O520        C521   1.261       .  A
C521        O522   1.267       .  A
C521       C1005   1.445       .  S
O522       Cr527   2.021       .  S
O523       Cr527   1.960       .  S
O523        C524   1.254       .  A
C524        C756   1.436       .  S
Cr525       O528   1.770       .  S
Cr526       O528   1.773       .  S
Cr527       O528   1.765       .  S
O529       Cr547   2.032       .  S
O529        C537   1.270       .  A
O530       Cr547   1.969   1_565  S
O530        C531   1.260       .  A
C531        O532   1.268       .  A
C531        C957   1.431       .  S
O532       Cr548   2.014   1_565  S
O533       Cr548   1.984       .  S
O533        C534   1.261       .  A
C534        O535   1.267       .  A
C534        C749   1.445       .  S
O535       Cr549   2.021       .  S
O536       Cr549   1.960       .  S
O536        C537   1.254       .  A
C537        C745   1.436       .  S
O538       Cr547   1.974       .  S
O538        C546   1.257       .  A
O539       Cr547   2.023   1_565  S
O539        C540   1.267       .  A
C540        O541   1.260   1_565  A
C540       C1013   1.446       .  S
O541       Cr548   1.982       .  S
O542       Cr548   2.019       .  S
O542        C543   1.265       .  A
C543        O544   1.249       .  A
C543        C761   1.419   1_455  S
O544       Cr549   1.948       .  S
O545       Cr549   2.015       .  S
O545        C546   1.265       .  A
C546        C744   1.436       .  S
Cr547       O550   1.770       .  S
Cr548       O550   1.773       .  S
Cr549       O550   1.765       .  S
O551       Cr569   2.032       .  S
O551        C559   1.270       .  A
O552       Cr569   1.969       .  S
O552        C553   1.260       .  A
C553        O554   1.268       .  A
C553        C941   1.431       .  S
O554       Cr570   2.014       .  S
O555       Cr570   1.984       .  S
O555        C556   1.261       .  A
C556        O557   1.266       .  A
C556        C785   1.445       .  S
O557       Cr571   2.021       .  S
O558       Cr571   1.960       .  S
O558        C559   1.254       .  A
C559        C748   1.436       .  S
O560       Cr569   1.974       .  S
O560        C568   1.257       .  A
O561       Cr569   2.023       .  S
O561        C562   1.267       .  A
C562        O563   1.260       .  A
C562        C736   1.446       .  S
O563       Cr570   1.982       .  S
O564       Cr570   2.019       .  S
O564        C565   1.265       .  A
C565        O566   1.249       .  A
C565        C808   1.419       .  S
O566       Cr571   1.948       .  S
O567       Cr571   2.015       .  S
O567        C568   1.265       .  A
C568        C740   1.436       .  S
Cr569       O572   1.770       .  S
Cr570       O572   1.773       .  S
Cr571       O572   1.765       .  S
O573       Cr591   2.032       .  S
O573        C581   1.270       .  A
O574       Cr591   1.969       .  S
O574        C575   1.260       .  A
C575        O576   1.268       .  A
C575        C996   1.431       .  S
O576       Cr592   2.014       .  S
O577       Cr592   1.984       .  S
O577        C578   1.261       .  A
C578        O579   1.267       .  A
C578       C1049   1.445       .  S
O579       Cr593   2.021       .  S
O580       Cr593   1.960       .  S
O580        C581   1.254       .  A
C581        C729   1.436       .  S
O582       Cr591   1.974   1_554  S
O582        C590   1.257       .  A
O583       Cr591   2.023       .  S
O583        C584   1.267   1_556  A
C584        O585   1.260   1_554  A
C584        C768   1.446       .  S
O585       Cr592   1.982       .  S
O586       Cr592   2.019       .  S
O586        C587   1.265       .  A
C587        O588   1.249       .  A
C587       C1020   1.419   1_455  S
O588       Cr593   1.948       .  S
O589       Cr593   2.015   1_554  S
O589        C590   1.265       .  A
C590        C741   1.436       .  S
Cr591       O594   1.770       .  S
Cr592       O594   1.773       .  S
Cr593       O594   1.765       .  S
O595       Cr613   2.032       .  S
O595        C603   1.270       .  A
O596       Cr613   1.969   1_565  S
O596        C597   1.260       .  A
C597        O598   1.268       .  A
C597        C973   1.431       .  S
O598       Cr614   2.014   1_565  S
O599       Cr614   1.984       .  S
O599        C600   1.261       .  A
C600        O601   1.266       .  A
C600        C728   1.445       .  S
O601       Cr615   2.021       .  S
O602       Cr615   1.960       .  S
O602        C603   1.254       .  A
C603        C732   1.436       .  S
O604       Cr613   1.974   1_554  S
O604        C612   1.257       .  A
O605       Cr613   2.023   1_565  S
O605        C606   1.267   1_556  A
C606        O607   1.260   1_564  A
C606        C809   1.446       .  S
O607       Cr614   1.982       .  S
O608       Cr614   2.019       .  S
O608        C609   1.265       .  A
C609        O610   1.249       .  A
C609        C724   1.419       .  S
O610       Cr615   1.948       .  S
O611       Cr615   2.015   1_554  S
O611        C612   1.265       .  A
C612        C737   1.436       .  S
Cr613       O616   1.770       .  S
Cr614       O616   1.773       .  S
Cr615       O616   1.765       .  S
O617       Cr635   1.974       .  S
O617        C625   1.257       .  A
O618       Cr635   2.023       .  S
O618        C619   1.267       .  A
C619        O620   1.260       .  A
C619        C725   1.446       .  S
O620       Cr636   1.982       .  S
O621       Cr636   2.019       .  S
O621        C622   1.265       .  A
C622        O623   1.249       .  A
C622        C981   1.419       .  S
O623       Cr637   1.948       .  S
O624       Cr637   2.015       .  S
O624        C625   1.265       .  A
C625        C713   1.436       .  S
O626       Cr635   2.032       .  S
O626        C634   1.270       .  A
O627       Cr635   1.969       .  S
O627        C628   1.260       .  A
C628        O629   1.268       .  A
C628        C784   1.431       .  S
O629       Cr636   2.014       .  S
O630       Cr636   1.984       .  S
O630        C631   1.261       .  A
C631        O632   1.266       .  A
C631        C948   1.445       .  S
O632       Cr637   2.021       .  S
O633       Cr637   1.960       .  S
O633        C634   1.254       .  A
C634        C717   1.436       .  S
Cr635       O638   1.770       .  S
Cr636       O638   1.773       .  S
Cr637       O638   1.765       .  S
O639       Cr657   1.974       .  S
O639        C647   1.257       .  A
O640       Cr657   2.024       .  S
O640        C641   1.267       .  A
C641        O642   1.260       .  A
C641        C829   1.446       .  S
O642       Cr658   1.982       .  S
O643       Cr658   2.019       .  S
O643        C644   1.265       .  A
C644        O645   1.249       .  A
C644        C912   1.419       .  S
O645       Cr659   1.948       .  S
O646       Cr659   2.015       .  S
O646        C647   1.265       .  A
C647        C712   1.436       .  S
O648       Cr657   2.032       .  S
O648        C656   1.270       .  A
O649       Cr657   1.969       .  S
O649        C650   1.260       .  A
C650        O651   1.268       .  A
C650        C780   1.431       .  S
O651       Cr658   2.014       .  S
O652       Cr658   1.984       .  S
O652        C653   1.261       .  A
C653        O654   1.267       .  A
C653        C880   1.445       .  S
O654       Cr659   2.021       .  S
O655       Cr659   1.960       .  S
O655        C656   1.254       .  A
C656        C720   1.436       .  S
Cr657       O660   1.770       .  S
Cr658       O660   1.773       .  S
Cr659       O660   1.765       .  S
O661       Cr679   1.974   1_556  S
O661        C669   1.257       .  A
O662       Cr679   2.023   1_556  S
O662        C663   1.267       .  A
C663        O664   1.260       .  A
C663        C988   1.446       .  S
O664       Cr680   1.982   1_556  S
O665       Cr680   2.019       .  S
O665        C666   1.265       .  A
C666        O667   1.249   1_554  A
C666        C721   1.419   1_554  S
O667       Cr681   1.948   1_556  S
O668       Cr681   2.015   1_556  S
O668        C669   1.265       .  A
C669        C716   1.436       .  S
O670       Cr679   2.032       .  S
O670        C678   1.270       .  A
O671       Cr679   1.969       .  S
O671        C672   1.260       .  A
C672        O673   1.268       .  A
C672        C801   1.431       .  S
O673       Cr680   2.014       .  S
O674       Cr680   1.984       .  S
O674        C675   1.261       .  A
C675        O676   1.267       .  A
C675        C733   1.445       .  S
O676       Cr681   2.021       .  S
O677       Cr681   1.960       .  S
O677        C678   1.254       .  A
C678        C705   1.436       .  S
Cr679       O682   1.770       .  S
Cr680       O682   1.773       .  S
Cr681       O682   1.765       .  S
O683       Cr701   1.974   1_556  S
O683        C691   1.257       .  A
O684       Cr701   2.024   1_556  S
O684        C685   1.267       .  A
C685        O686   1.260       .  A
C685        C913   1.446       .  S
O686       Cr702   1.982   1_556  S
O687       Cr702   2.019       .  S
O687        C688   1.265       .  A
C688        O689   1.249   1_554  A
C688        C825   1.419   1_554  S
O689       Cr703   1.948   1_556  S
O690       Cr703   2.015   1_556  S
O690        C691   1.265       .  A
C691        C709   1.436       .  S
O692       Cr701   2.032       .  S
O692        C700   1.270       .  A
O693       Cr701   1.969       .  S
O693        C694   1.260       .  A
C694        O695   1.268       .  A
C694        C796   1.431       .  S
O695       Cr702   2.014       .  S
O696       Cr702   1.984       .  S
O696        C697   1.261       .  A
C697        O698   1.267       .  A
C697        C852   1.445       .  S
O698       Cr703   2.021       .  S
O699       Cr703   1.960       .  S
O699        C700   1.254       .  A
C700        C708   1.436       .  S
Cr701       O704   1.770       .  S
Cr702       O704   1.773       .  S
Cr703       O704   1.765       .  S
C705        C706   1.207       .  T
C706        C707   1.414       .  S
C707        C708   1.207       .  T
C709        C710   1.206       .  T
C710        C711   1.413       .  S
C711        C712   1.206       .  T
C713        C714   1.206       .  T
C714        C715   1.413       .  S
C715        C716   1.206       .  T
C717        C718   1.207       .  T
C718        C719   1.414       .  S
C719        C720   1.207       .  T
C721        C722   1.198       .  T
C722        C723   1.402       .  S
C723        C724   1.198       .  T
C725        C726   1.212       .  T
C726        C727   1.423       .  S
C727        C728   1.212       .  T
C729        C730   1.207       .  T
C730        C731   1.414       .  S
C731        C732   1.207       .  T
C733        C734   1.212       .  T
C734        C735   1.423       .  S
C735        C736   1.212       .  T
C737        C738   1.206       .  T
C738        C739   1.413       .  S
C739        C740   1.206       .  T
C741        C742   1.206       .  T
C742        C743   1.413       .  S
C743        C744   1.206       .  T
C745        C746   1.207       .  T
C746        C747   1.414       .  S
C747        C748   1.207       .  T
C749        C750   1.212       .  T
C750        C751   1.423   1_455  S
C751        C752   1.212       .  T
C753        C754   1.207       .  T
C754        C755   1.414       .  S
C755        C756   1.207       .  T
C757        C758   1.206       .  T
C758        C759   1.413       .  S
C759        C760   1.206       .  T
C761        C762   1.198       .  T
C762        C763   1.402       .  S
C763        C764   1.198       .  T
C765        C766   1.212       .  T
C766        C767   1.423       .  S
C767        C768   1.212   1_655  T
C769        C770   1.206       .  T
C770        C771   1.413       .  S
C771        C772   1.206       .  T
C773        C774   1.207       .  T
C774        C775   1.414       .  S
C775        C776   1.207       .  T
C777        C778   1.203       .  T
C778        C779   1.408       .  S
C779        C780   1.203       .  T
C781        C782   1.203       .  T
C782        C783   1.408       .  S
C783        C784   1.203       .  T
C785        C786   1.212       .  T
C786        C787   1.423       .  S
C787        C788   1.212       .  T
C789        C790   1.207       .  T
C790        C791   1.414       .  S
C791        C792   1.207       .  T
C793        C794   1.203       .  T
C794        C795   1.408       .  S
C795        C796   1.203       .  T
C797        C798   1.206       .  T
C798        C799   1.413       .  S
C799        C800   1.206       .  T
C801        C802   1.203       .  T
C802        C803   1.408       .  S
C803        C804   1.203       .  T
C805        C806   1.198       .  T
C806        C807   1.402   1_565  S
C807        C808   1.198       .  T
C809        C810   1.212       .  T
C810        C811   1.423       .  S
C811        C812   1.212       .  T
C813        C814   1.206       .  T
C814        C815   1.413       .  S
C815        C816   1.206       .  T
C817        C818   1.207       .  T
C818        C819   1.414       .  S
C819        C820   1.207       .  T
C821        C822   1.212       .  T
C822        C823   1.423       .  S
C823        C824   1.212       .  T
C825        C826   1.198       .  T
C826        C827   1.402       .  S
C827        C828   1.198       .  T
C829        C830   1.212       .  T
C830        C831   1.423       .  S
C831        C832   1.212       .  T
C833        C834   1.207       .  T
C834        C835   1.414       .  S
C835        C836   1.207       .  T
C837        C838   1.212       .  T
C838        C839   1.423       .  S
C839        C840   1.212       .  T
C841        C842   1.198       .  T
C842        C843   1.402       .  S
C843        C844   1.198       .  T
C845        C846   1.212       .  T
C846        C847   1.423       .  S
C847        C848   1.212       .  T
C849        C850   1.212       .  T
C850        C851   1.423       .  S
C851        C852   1.212       .  T
C853        C854   1.206       .  T
C854        C855   1.413       .  S
C855        C856   1.206       .  T
C857        C858   1.206       .  T
C858        C859   1.413       .  S
C859        C860   1.206       .  T
C861        C862   1.207       .  T
C862        C863   1.414       .  S
C863        C864   1.207       .  T
C865        C866   1.212       .  T
C866        C867   1.423       .  S
C867        C868   1.212       .  T
C869        C870   1.198       .  T
C870        C871   1.402       .  S
C871        C872   1.198       .  T
C873        C874   1.203       .  T
C874        C875   1.408       .  S
C875        C876   1.203       .  T
C877        C878   1.212       .  T
C878        C879   1.423       .  S
C879        C880   1.212       .  T
C881        C882   1.212       .  T
C882        C883   1.423       .  S
C883        C884   1.212       .  T
C885        C886   1.198       .  T
C886        C887   1.402   1_545  S
C887        C888   1.198       .  T
C889        C890   1.203       .  T
C890        C891   1.408       .  S
C891        C892   1.203       .  T
C893        C894   1.207       .  T
C894        C895   1.414       .  S
C895        C896   1.207       .  T
C897        C898   1.212       .  T
C898        C899   1.423       .  S
C899        C900   1.212       .  T
C901        C902   1.198       .  T
C902        C903   1.401       .  S
C903        C904   1.198       .  T
C905        C906   1.203       .  T
C906        C907   1.408       .  S
C907        C908   1.203       .  T
C909        C910   1.198       .  T
C910        C911   1.402       .  S
C911        C912   1.198       .  T
C913        C914   1.212       .  T
C914        C915   1.423       .  S
C915        C916   1.212       .  T
C917        C918   1.206       .  T
C918        C919   1.413       .  S
C919        C920   1.206       .  T
C921        C922   1.212       .  T
C922        C923   1.423       .  S
C923        C924   1.212       .  T
C925        C926   1.203       .  T
C926        C927   1.408       .  S
C927        C928   1.203       .  T
C929        C930   1.206       .  T
C930        C931   1.413       .  S
C931        C932   1.206       .  T
C933        C934   1.207       .  T
C934        C935   1.414       .  S
C935        C936   1.207       .  T
C937        C938   1.212       .  T
C938        C939   1.423       .  S
C939        C940   1.212       .  T
C941        C942   1.203       .  T
C942        C943   1.408       .  S
C943        C944   1.203       .  T
C945        C946   1.212       .  T
C946        C947   1.423       .  S
C947        C948   1.212       .  T
C949        C950   1.212       .  T
C950        C951   1.423       .  S
C951        C952   1.212       .  T
C953        C954   1.198       .  T
C954        C955   1.402       .  S
C955        C956   1.198       .  T
C957        C958   1.203       .  T
C958        C959   1.408       .  S
C959        C960   1.203       .  T
C961        C962   1.207       .  T
C962        C963   1.414       .  S
C963        C964   1.207       .  T
C965        C966   1.212       .  T
C966        C967   1.423   1_655  S
C967        C968   1.212       .  T
C969        C970   1.198       .  T
C970        C971   1.402       .  S
C971        C972   1.198       .  T
C973        C974   1.203       .  T
C974        C975   1.408       .  S
C975        C976   1.203       .  T
C977        C978   1.206       .  T
C978        C979   1.413       .  S
C979        C980   1.206       .  T
C981        C982   1.198       .  T
C982        C983   1.402       .  S
C983        C984   1.198       .  T
C985        C986   1.212       .  T
C986        C987   1.423       .  S
C987        C988   1.212       .  T
C989        C990   1.212       .  T
C990        C991   1.423       .  S
C991        C992   1.212       .  T
C993        C994   1.203       .  T
C994        C995   1.408       .  S
C995        C996   1.203       .  T
C997        C998   1.206       .  T
C998        C999   1.413       .  S
C999       C1000   1.206       .  T
C1001      C1002   1.207       .  T
C1002      C1003   1.414       .  S
C1003      C1004   1.207       .  T
C1005      C1006   1.212       .  T
C1006      C1007   1.423       .  S
C1007      C1008   1.212   1_655  T
C1009      C1010   1.203       .  T
C1010      C1011   1.408       .  S
C1011      C1012   1.203       .  T
C1013      C1014   1.212   1_455  T
C1014      C1015   1.423       .  S
C1015      C1016   1.212       .  T
C1017      C1018   1.198       .  T
C1018      C1019   1.402   1_565  S
C1019      C1020   1.198       .  T
C1021      C1022   1.212       .  T
C1022      C1023   1.423   1_655  S
C1023      C1024   1.212       .  T
C1025      C1026   1.203       .  T
C1026      C1027   1.408       .  S
C1027      C1028   1.203       .  T
C1029      C1030   1.212       .  T
C1030      C1031   1.423       .  S
C1031      C1032   1.212       .  T
C1033      C1034   1.207       .  T
C1034      C1035   1.414       .  S
C1035      C1036   1.207       .  T
C1037      C1038   1.212       .  T
C1038      C1039   1.423       .  S
C1039      C1040   1.212       .  T
C1041      C1042   1.198       .  T
C1042      C1043   1.402       .  S
C1043      C1044   1.198       .  T
C1045      C1046   1.203       .  T
C1046      C1047   1.408       .  S
C1047      C1048   1.203       .  T
C1049      C1050   1.212       .  T
C1050      C1051   1.423   1_455  S
C1051      C1052   1.212       .  T
C1053      C1054   1.206       .  T
C1054      C1055   1.413       .  S
C1055      C1056   1.206       .  T
C1057      C1058   1.212   1_455  T
C1058      C1059   1.423       .  S
C1059      C1060   1.212       .  T
C1061      C1062   1.198       .  T
C1062      C1063   1.402       .  S
C1063      C1064   1.198       .  T
C1065      C1066   1.203       .  T
C1066      C1067   1.408       .  S
C1067      C1068   1.203       .  T
C1069      C1070   1.212       .  T
C1070      C1071   1.423       .  S
C1071      C1072   1.212       .  T
C1073      C1074   1.198       .  T
C1074      C1075   1.402   1_565  S
C1075      C1076   1.198       .  T
C1077      C1078   1.206       .  T
C1078      C1079   1.413       .  S
C1079      C1080   1.206       .  T
C1081      C1082   1.207       .  T
C1082      C1083   1.414       .  S
C1083      C1084   1.207       .  T
C1085      C1086   1.212       .  T
C1086      C1087   1.423       .  S
C1087      C1088   1.212       .  T
