geometry optimzed in LAMMPS
_audit_creation_date              2020-12-01 
_audit_creation_method            'lammps2cif' 
_symmetry_space_group_name_H-M    'P1' 
_symmetry_Int_Tables_number       1 
_symmetry_cell_setting            triclinic 
loop_ 
_symmetry_equiv_pos_as_xyz 
  x,y,z 
_cell_length_a                    48.23238211 
_cell_length_b                    27.136604152722505 
_cell_length_c                    29.154325504788805 
_cell_angle_alpha                 90.02106003697726 
_cell_angle_beta                  96.8633499032752 
_cell_angle_gamma                 89.7048003962803 
loop_ 
_atom_site_label 
_atom_site_type_symbol 
_atom_site_fract_x 
_atom_site_fract_y 
_atom_site_fract_z 
_atom_site_charge 
O1          O  0.79843322  0.64228422  0.74351428    -0.82300
C2          C  0.85154022  0.51340164  0.63070756     0.97000
O3          O  0.85751009  0.55890307  0.63532034    -0.71400
O4          O  0.81166532  0.60879222  0.62071333    -0.75000
Al5        Al  0.84020747  0.61025064  0.66918219     1.49000
C6          C  0.78588714  0.61440173  0.62111583     0.92300
O7          O  0.77393093  0.52034004  0.69252935    -0.81200
O8          O  0.84022076  0.53275601  0.78512286    -0.74800
Al9        Al  0.78865815  0.58096323  0.71705922     1.90100
O10         O  0.80773802  0.47408402  0.72517528    -0.73900
O11         O  0.87800048  0.53847259  0.72707431    -0.73700
O12         O  0.84153667  0.49088534  0.66270915    -0.79400
O13         O  0.87148713  0.61705255  0.71419216    -0.77600
O14         O  0.82298712  0.56860752  0.70315070    -1.13700
O15         O  0.82577354  0.66965923  0.69454839    -0.72900
C16         C  0.81104851  0.67721129  0.72702614     0.97800
C17         C  0.78275757  0.47882180  0.70707800     0.94200
Al18       Al  0.84048015  0.51360227  0.72335320     1.55600
O19         O  0.77488813  0.61019255  0.65818559    -0.77500
C20         C  0.88730171  0.58188685  0.72821293     0.98400
C21         C  0.81839724  0.54259792  0.80339276     0.93200
O22         O  0.79588415  0.55491826  0.77898889    -0.82900
O23         O  0.68999743  0.87672412  0.18920118    -0.82300
C24         C  0.65297372  0.89578835  0.35605595     0.97000
O25         O  0.66038944  0.92330996  0.32493312    -0.71400
O26         O  0.68688391  0.94883825  0.25515742    -0.75000
Al27       Al  0.65391663  0.91106505  0.26167660     1.49000
C28         C  0.71228871  0.94046820  0.26841158     0.92300
O29         O  0.71934868  0.80247167  0.29720372    -0.81200
O30         O  0.66354802  0.75143813  0.26323792    -0.74800
Al31       Al  0.70193278  0.84091125  0.24579268     1.90100
O32         O  0.68631219  0.79610929  0.34250853    -0.73900
O33         O  0.61909101  0.81046831  0.26358429    -0.73700
O34         O  0.64361438  0.85267837  0.34690951    -0.79400
O35         O  0.61621727  0.89052060  0.26674707    -0.77600
O36         O  0.67015938  0.85214995  0.26937233    -1.13700
O37         O  0.64714529  0.90170410  0.19767662    -0.72900
C38         C  0.66637693  0.89418677  0.17251699     0.97800
C39         C  0.71113257  0.78989568  0.33505901     0.94200
Al40       Al  0.65432826  0.80638531  0.30107967     1.55600
O41         O  0.72035772  0.89662388  0.27531423    -0.77500
C42         C  0.60445823  0.84911618  0.26218181     0.98400
C43         C  0.67689751  0.74692900  0.22852310     0.93200
O44         O  0.68866758  0.78381866  0.21357965    -0.82900
O45         O  0.68455731  0.13801155  0.73146553    -0.82300
C46         C  0.63051424  0.01736666  0.84755178     0.97000
O47         O  0.62323671  0.06187353  0.83932360    -0.71400
O48         O  0.66892529  0.11100965  0.85460504    -0.75000
Al49       Al  0.64112816  0.11063997  0.80447029     1.49000
C50         C  0.69472594  0.11751159  0.85531320     0.92300
O51         O  0.70779130  0.01772232  0.78898648    -0.81200
O52         O  0.64251550  0.02625369  0.69337438    -0.74800
Al53       Al  0.69356511  0.07739486  0.76100133     1.90100
O54         O  0.67478110  0.97045809  0.75662242    -0.73900
O55         O  0.60413847  0.03605238  0.75062926    -0.73700
O56         O  0.64078837  0.99188792  0.81754037    -0.79400
O57         O  0.61037785  0.11531887  0.75740466    -0.77600
O58         O  0.65897854  0.06672468  0.77365459    -1.13700
O59         O  0.65637706  0.16830310  0.77783775    -0.72900
C60         C  0.67238235  0.17440443  0.74693198     0.97800
C61         C  0.69948791  0.97559556  0.77576238     0.94200
Al62       Al  0.64185097  0.01076186  0.75593227     1.55600
O63         O  0.70630325  0.10987537  0.81914944    -0.77500
C64         C  0.59453244  0.07940214  0.74624094     0.98400
C65         C  0.66481319  0.03380638  0.67579593     0.93200
O66         O  0.68705686  0.04756043  0.70023095    -0.82900
O67         O  0.80731391  0.36664499  0.28752018    -0.82300
C68         C  0.84505665  0.41131914  0.12321582     0.97000
O69         O  0.83679498  0.43318527  0.15730659    -0.71400
O70         O  0.80883272  0.44683469  0.22811122    -0.75000
Al71       Al  0.84264034  0.41158071  0.21885457     1.49000
C72         C  0.78348035  0.43777565  0.21468502     0.92300
O73         O  0.77886388  0.30301117  0.17277294    -0.81200
O74         O  0.83191216  0.25327050  0.19325961    -0.74800
Al75       Al  0.79596806  0.33693642  0.22748641     1.90100
O76         O  0.80916924  0.31358974  0.12321744    -0.73900
O77         O  0.87691285  0.31133138  0.20234426    -0.73700
O78         O  0.85333800  0.36694578  0.12700499    -0.79400
O79         O  0.88035953  0.39101037  0.21294076    -0.77600
O80         O  0.82677237  0.35395768  0.20391509    -1.13700
O81         O  0.84942718  0.39428688  0.28165596    -0.72900
C82         C  0.83061913  0.38289414  0.30630210     0.97800
C83         C  0.78548137  0.30051140  0.13207160     0.94200
Al84       Al  0.84175256  0.31441919  0.16494247     1.55600
O85         O  0.77599742  0.39437075  0.20431426    -0.77500
C86         C  0.89174541  0.34909669  0.21101420     0.98400
C87         C  0.82129600  0.24346832  0.22990405     0.93200
O88         O  0.81178481  0.27769152  0.25280476    -0.82900
O89         O  0.17770882  0.65605585  0.73684997    -0.82300
C90         C  0.13822747  0.52090518  0.86090625     0.97000
O91         O  0.13189927  0.56623896  0.85824563    -0.71400
O92         O  0.17775385  0.61602281  0.86534139    -0.75000
Al93       Al  0.14573318  0.61853829  0.82242167     1.49000
C94         C  0.20188103  0.62851933  0.85810341     0.92300
O95         O  0.21076894  0.53669531  0.78396450    -0.81200
O96         O  0.13928863  0.54100121  0.70285359    -0.74800
Al97       Al  0.19225006  0.59535189  0.76148772     1.90100
O98         O  0.17721166  0.48589652  0.75975311    -0.73900
O99         O  0.10615339  0.54661774  0.76791657    -0.73700
O100        O  0.14658224  0.49935877  0.82677608    -0.79400
O101        O  0.11139764  0.62515506  0.78398255    -0.77600
O102        O  0.16051337  0.57914169  0.78302844    -1.13700
O103        O  0.15750178  0.67951153  0.79639918    -0.72900
C104        C  0.16883279  0.69017482  0.76073033     0.97800
C105        C  0.20255963  0.49344618  0.77447837     0.94200
Al106      Al  0.14362886  0.52292493  0.76567921     1.55600
O107        O  0.20903433  0.62691671  0.81771491    -0.77500
C108        C  0.09594285  0.58939277  0.77052489     0.98400
C109        C  0.15914838  0.55163523  0.68031807     0.93200
O110        O  0.18209978  0.56746667  0.70063950    -0.82900
O111        O  0.30156683  0.88136336  0.29048620    -0.82300
C112        C  0.35377071  0.92756318  0.14025457     0.97000
O113        O  0.34372722  0.94880060  0.17304576    -0.71400
O114        O  0.30964227  0.96069767  0.23536968    -0.75000
Al115      Al  0.34411288  0.92476987  0.23334045     1.49000
C116        C  0.28510134  0.95358367  0.21589151     0.92300
O117        O  0.28219035  0.81738146  0.17220991    -0.81200
O118        O  0.33326762  0.76852917  0.20183242    -0.74800
Al119      Al  0.29526173  0.85208727  0.22937283     1.90100
O120        O  0.31585677  0.83101072  0.13023757    -0.73900
O121        O  0.37882338  0.82419313  0.21978446    -0.73700
O122        O  0.36083032  0.88255526  0.14356635    -0.79400
O123        O  0.38234350  0.90285499  0.23524318    -0.77600
O124        O  0.32847114  0.86854859  0.21340259    -1.13700
O125        O  0.34542049  0.90512821  0.29545845    -0.72900
C126        C  0.32397680  0.89486767  0.31439623     0.97800
C127        C  0.29222499  0.81345588  0.13412900     0.94200
Al128      Al  0.34589097  0.82964543  0.17712481     1.55600
O129        O  0.27760814  0.91062179  0.20314656    -0.77500
C130        C  0.39357035  0.86076816  0.23345960     0.98400
C131        C  0.31984044  0.75863170  0.23548599     0.93200
O132        O  0.30910459  0.79260837  0.25713067    -0.82900
O133        O  0.19196242  0.38055746  0.20464472    -0.82300
C134        C  0.14151768  0.42463654  0.35812262     0.97000
O135        O  0.15121183  0.44716712  0.32563972    -0.71400
O136        O  0.18284803  0.46273251  0.25904608    -0.75000
Al137      Al  0.15006514  0.42410397  0.26452792     1.49000
C138        C  0.20787747  0.45778920  0.27658282     0.92300
O139        O  0.21635441  0.32698117  0.32620212    -0.81200
O140        O  0.16340944  0.26735326  0.29179156    -0.74800
Al141      Al  0.20108723  0.35524822  0.26721248     1.90100
O142        O  0.18024814  0.32672140  0.36511307    -0.73900
O143        O  0.11757183  0.32214699  0.27602508    -0.73700
O144        O  0.13551081  0.37916473  0.35413635    -0.79400
O145        O  0.11250224  0.40114794  0.26484428    -0.77600
O146        O  0.16736133  0.36833045  0.28342360    -1.13700
O147        O  0.14795644  0.40443754  0.20259170    -0.72900
C148        C  0.16865706  0.39261184  0.18212127     0.97800
C149        C  0.20599996  0.32219759  0.36388167     0.94200
Al150      Al  0.15058001  0.32715362  0.31856572     1.55600
O151        O  0.21658185  0.41596363  0.29040885    -0.77500
C152        C  0.10197505  0.35879147  0.26580968     0.98400
C153        C  0.17807978  0.25878074  0.25946050     0.93200
O154        O  0.19079191  0.29314766  0.24218024    -0.82900
O155        O  0.30422918  0.15664075  0.76418977    -0.82300
C156        C  0.34228571  0.02398107  0.63742350     0.97000
O157        O  0.34872277  0.06910751  0.64005937    -0.71400
O158        O  0.30270295  0.11822160  0.63465566    -0.75000
Al159      Al  0.33520583  0.12083250  0.67661901     1.49000
C160        C  0.27930150  0.13328576  0.64333543     0.92300
O161        O  0.27122938  0.03783012  0.71531413    -0.81200
O162        O  0.34351359  0.04398083  0.79569419    -0.74800
Al163      Al  0.28951849  0.09675178  0.73855009     1.90100
O164        O  0.30543594  0.98821453  0.74098405    -0.73900
O165        O  0.37591680  0.04861925  0.72889053    -0.73700
O166        O  0.33468704  0.00180132  0.67178419    -0.79400
O167        O  0.37001418  0.12725172  0.71350222    -0.77600
O168        O  0.32118354  0.08115664  0.71625229    -1.13700
O169        O  0.32373561  0.18136166  0.70430246    -0.72900
C170        C  0.31346849  0.19110367  0.74129165     0.97800
C171        C  0.27993616  0.99489194  0.72638859     0.94200
Al172      Al  0.33859774  0.02519837  0.73308664     1.55600
O173        O  0.27242501  0.13072268  0.68378314    -0.77500
C174        C  0.38589696  0.09118874  0.72485344     0.98400
C175        C  0.32345276  0.05334678  0.81844578     0.93200
O176        O  0.30005561  0.06765978  0.79842154    -0.82900
C177        C  0.22312762  0.29242120  0.48954220    -0.11900
C178        C  0.24351160  0.25563620  0.48843441     0.14600
C179        C  0.25552428  0.24795670  0.44689811     0.01500
C180        C  0.24459690  0.27303049  0.40654924    -0.16300
C181        C  0.22297506  0.30769136  0.40745119    -0.11100
C182        C  0.21396548  0.32016360  0.45045526     0.08300
C183        C  0.25011159  0.22397399  0.53003086     0.09300
S184        S  0.28434076  0.20616638  0.44294265    -0.25400
H185        H  0.25213883  0.26379187  0.37405657     0.19600
S186        S  0.19038323  0.37063964  0.45778968    -0.31100
H187        H  0.21386780  0.29923730  0.52102489     0.09900
C188        C  0.25767401  0.24427846  0.57443560     0.03100
C189        C  0.26312883  0.21282660  0.61253513    -0.13400
C190        C  0.26265794  0.16155392  0.60708955    -0.09100
C191        C  0.25432512  0.14116816  0.56320804     0.06500
C192        C  0.24751431  0.17252836  0.52538330    -0.14100
S193        S  0.26359986  0.30962194  0.58252319    -0.31100
H194        H  0.27051902  0.22812414  0.64606306     0.10800
S195        S  0.25328193  0.07554412  0.55320425    -0.28200
H196        H  0.24087315  0.15663293  0.49180087     0.08000
H197        H  0.19836566  0.39899770  0.42117176     0.26400
H198        H  0.26430987  0.30963197  0.63090884     0.21200
H199        H  0.25114941  0.06194741  0.59920867     0.26500
H200        H  0.29599009  0.21127809  0.48928229     0.15400
C201        C  0.29671329  0.64547561  0.29654256    -0.11900
C202        C  0.28484375  0.61779026  0.25859020     0.14600
C203        C  0.28828478  0.63351145  0.21344993     0.01500
C204        C  0.30231941  0.67758249  0.20722968    -0.16300
C205        C  0.31261909  0.70704108  0.24504477    -0.11100
C206        C  0.31041741  0.69012496  0.29023994     0.08300
C207        C  0.26590827  0.57673766  0.26684992     0.09300
S208        S  0.27305611  0.60157406  0.16229744    -0.25400
H209        H  0.30336165  0.69075823  0.17236240     0.19600
S210        S  0.32431086  0.72600752  0.33985286    -0.31100
H211        H  0.29397673  0.63320028  0.33104091     0.09900
C212        C  0.27566286  0.52821527  0.27505345     0.03100
C213        C  0.25643554  0.49036124  0.28003220    -0.13400
C214        C  0.22755746  0.50015646  0.27776880    -0.09100
C215        C  0.21830603  0.54980759  0.27277924     0.06500
C216        C  0.23742533  0.58707355  0.26645206    -0.14100
S217        S  0.31244844  0.51439945  0.27728939    -0.31100
H218        H  0.26389841  0.45275981  0.28419011     0.10800
S219        S  0.18269788  0.56880677  0.27553831    -0.28200
H220        H  0.23006534  0.62472857  0.26149598     0.08000
H221        H  0.31713322  0.69306693  0.37369965     0.26400
H222        H  0.31055064  0.46395750  0.28749898     0.21200
H223        H  0.17881953  0.53657161  0.31188128     0.26500
H224        H  0.27349601  0.55432126  0.18197799     0.15400
C225        C  0.20124155  0.15115575  0.19005859    -0.11900
C226        C  0.20771620  0.11603390  0.22509743     0.14600
C227        C  0.19970407  0.12534605  0.26946534     0.01500
C228        C  0.18720956  0.17055987  0.27843791    -0.16300
C229        C  0.18312827  0.20749613  0.24454862    -0.11100
C230        C  0.18881491  0.19653127  0.19916031     0.08300
C231        C  0.22603394  0.07367792  0.21609461     0.09300
S232        S  0.20647530  0.08283851  0.31717554    -0.25400
H233        H  0.18281134  0.17842301  0.31331072     0.19600
S234        S  0.18067393  0.24038645  0.15276929    -0.31100
H235        H  0.20707065  0.14375231  0.15597842     0.09900
C236        C  0.21666400  0.02454874  0.21390349     0.03100
C237        C  0.23609815  0.98588584  0.21178937    -0.13400
C238        C  0.26474255  0.99545083  0.21107333    -0.09100
C239        C  0.27346534  0.04510963  0.20884221     0.06500
C240        C  0.25412923  0.08339451  0.21197613    -0.14100
S241        S  0.18007496  0.01123575  0.21436470    -0.31100
H242        H  0.22909468  0.94811568  0.21237464     0.10800
S243        S  0.30901945  0.06091910  0.20143638    -0.28200
H244        H  0.26107639  0.12127638  0.21261738     0.08000
H245        H  0.18567098  0.20846534  0.11658969     0.26400
H246        H  0.18236365  0.95979436  0.21001960     0.21200
H247        H  0.30372679  0.11040850  0.18874162     0.26500
H248        H  0.23130611  0.06260591  0.30448455     0.15400
C249        C  0.35439884  0.98987761  0.51499215    -0.11900
C250        C  0.33364253  0.95424044  0.50451806     0.14600
C251        C  0.31756919  0.93873700  0.53919395     0.01500
C252        C  0.32167472  0.96094739  0.58268293    -0.16300
C253        C  0.34188325  0.99773125  0.59295277    -0.11100
C254        C  0.35894282  0.01134518  0.55884060     0.08300
C255        C  0.32924098  0.93476556  0.45688281     0.09300
S256        S  0.29107560  0.89184380  0.53009026    -0.25400
H257        H  0.30830849  0.95031296  0.60831332     0.19600
S258        S  0.38704256  0.05510172  0.56900737    -0.31100
H259        H  0.36709464  0.00120981  0.48862357     0.09900
C260        C  0.30557040  0.94787406  0.42605108     0.03100
C261        C  0.30335072  0.93108056  0.38025005    -0.13400
C262        C  0.32469561  0.90265473  0.36448675    -0.09100
C263        C  0.34796808  0.88843519  0.39585952     0.06500
C264        C  0.35002255  0.90477604  0.44159723    -0.14100
S265        S  0.27932082  0.98907752  0.44392192    -0.31100
H266        H  0.28581506  0.94265331  0.35589572     0.10800
S267        S  0.37583725  0.84996655  0.37963179    -0.28200
H268        H  0.36813555  0.89458213  0.46538922     0.08000
H269        H  0.39521448  0.04037243  0.61494431     0.26400
H270        H  0.26121347  0.98778658  0.40236513     0.21200
H271        H  0.35943148  0.82440760  0.34431673     0.26500
H272        H  0.30251459  0.86656095  0.49467190     0.15400
C273        C  0.36486754  0.95973353  0.01686303    -0.11900
C274        C  0.34727684  0.00091440  0.00942002     0.14600
C275        C  0.33490967  0.02130083  0.04643148     0.01500
C276        C  0.33884915  0.99812997  0.08939964    -0.16300
C277        C  0.35523029  0.95507517  0.09669749    -0.11100
C278        C  0.36943044  0.93712962  0.06020983     0.08300
C279        C  0.34032405  0.01896981  0.96186534     0.09300
S280        S  0.31280455  0.07531106  0.04042707    -0.25400
H281        H  0.32795287  0.01293063  0.11675345     0.19600
S282        S  0.39342433  0.88575457  0.06613042    -0.31100
H283        H  0.37471856  0.94459972  0.98839803     0.09900
C284        C  0.35933374  0.04709733  0.94003202     0.03100
C285        C  0.35266184  0.06002014  0.89354331    -0.13400
C286        C  0.32736331  0.04523978  0.86862945    -0.09100
C287        C  0.30798273  0.01825177  0.89117187     0.06500
C288        C  0.31472364  0.00526535  0.93750761    -0.14100
S289        S  0.39210633  0.06608264  0.97131972    -0.31100
H290        H  0.36736661  0.08094629  0.87622458     0.10800
S291        S  0.27584843  0.99485454  0.86144967    -0.28200
H292        H  0.30027726  0.98317515  0.95440569     0.08000
H293        H  0.40577255  0.89960721  0.11043365     0.26400
H294        H  0.40318612  0.08745591  0.93354515     0.21200
H295        H  0.26493375  0.04210804  0.85037321     0.26500
H296        H  0.32581374  0.09744621  0.00506885     0.15400
C297        C  0.23999325  0.74005405  0.05141029    -0.11900
C298        C  0.25781364  0.72154735  0.02053493     0.14600
C299        C  0.28644500  0.73269064  0.02802908     0.01500
C300        C  0.29632279  0.76417709  0.06396736    -0.16300
C301        C  0.27870600  0.78338372  0.09497723    -0.11100
C302        C  0.25022301  0.76978440  0.08927362     0.08300
C303        C  0.24583975  0.69407908  0.97880285     0.09300
S304        S  0.31169402  0.70673166  0.99376285    -0.25400
H305        H  0.31846622  0.77217397  0.06859451     0.19600
S306        S  0.22654671  0.79062972  0.12883516    -0.31100
H307        H  0.21796052  0.73156345  0.04539522     0.09900
C308        C  0.23121861  0.64964631  0.98192249     0.03100
C309        C  0.21864443  0.62723085  0.94145525    -0.13400
C310        C  0.22061645  0.64787138  0.89773698    -0.09100
C311        C  0.23664844  0.69084953  0.89442854     0.06500
C312        C  0.24880961  0.71370251  0.93505362    -0.14100
S313        S  0.22876481  0.62099394  0.03721121    -0.31100
H314        H  0.20660817  0.59395784  0.94384559     0.10800
S315        S  0.24000555  0.71920779  0.83925705    -0.28200
H316        H  0.26007959  0.74786302  0.93295707     0.08000
H317        H  0.20324993  0.76327080  0.10987114     0.26400
H318        H  0.20912420  0.58493526  0.02110063     0.21200
H319        H  0.25898071  0.75612432  0.85586732     0.26500
H320        H  0.29761385  0.66191673  0.98437105     0.15400
C321        C  0.13618629  0.39654651  0.05760194    -0.11900
C322        C  0.15613048  0.42403377  0.03763810     0.14600
C323        C  0.18179919  0.43539461  0.06410667     0.01500
C324        C  0.18631157  0.42121547  0.11057840    -0.16300
C325        C  0.16565900  0.39630490  0.13133109    -0.11100
C326        C  0.14074798  0.38222911  0.10398423     0.08300
C327        C  0.14831974  0.44511955  0.99116569     0.09300
S328        S  0.20858645  0.47173268  0.04219962    -0.25400
H329        H  0.20535419  0.43245589  0.13138535     0.19600
S330        S  0.11367809  0.34718528  0.12655106    -0.31100
H331        H  0.11657696  0.38752257  0.03726947     0.09900
C332        C  0.15500787  0.42137861  0.95105530     0.03100
C333        C  0.14996653  0.44579743  0.90847071    -0.13400
C334        C  0.13763634  0.49314294  0.90489152    -0.09100
C335        C  0.12816137  0.51408259  0.94484426     0.06500
C336        C  0.13426831  0.49046784  0.98752390    -0.14100
S337        S  0.17123357  0.36115006  0.95458194    -0.31100
H338        H  0.15667648  0.42852637  0.87820382     0.10800
S339        S  0.10796792  0.57018236  0.94422051    -0.28200
H340        H  0.12810701  0.50767699  0.01832307     0.08000
H341        H  0.13159646  0.32174802  0.16025327     0.26400
H342        H  0.17422388  0.35648090  0.90735535     0.21200
H343        H  0.09085861  0.55819947  0.90320569     0.26500
H344        H  0.20210066  0.45984689  0.99535197     0.15400
C345        C  0.12395018  0.45833962  0.47875245    -0.11900
C346        C  0.14020392  0.50072566  0.48747946     0.14600
C347        C  0.15433689  0.52044899  0.45224430     0.01500
C348        C  0.15322469  0.49594922  0.40996577    -0.16300
C349        C  0.13828442  0.45173772  0.40160596    -0.11100
C350        C  0.12277236  0.43347536  0.43630955     0.08300
C351        C  0.14543995  0.51869946  0.53553615     0.09300
S352        S  0.17530733  0.57537951  0.45989865    -0.25400
H353        H  0.16520099  0.51072670  0.38412687     0.19600
S354        S  0.10180388  0.37838695  0.42807709    -0.31100
H355        H  0.11314452  0.44364206  0.50616958     0.09900
C356        C  0.12500064  0.54429240  0.55688036     0.03100
C357        C  0.13036761  0.55628944  0.60394232    -0.13400
C358        C  0.15568037  0.54274168  0.63002531    -0.09100
C359        C  0.17618199  0.51758414  0.60812004     0.06500
C360        C  0.17100522  0.50653293  0.56111260    -0.14100
S361        S  0.09224805  0.56167592  0.52416061    -0.31100
H362        H  0.11476939  0.57588435  0.62059845     0.10800
S363        S  0.20826192  0.49471078  0.63894371    -0.28200
H364        H  0.18653398  0.48618094  0.54473173     0.08000
H365        H  0.09455113  0.37503071  0.47327961     0.26400
H366        H  0.08050013  0.58428486  0.56080730     0.21200
H367        H  0.19522225  0.47478274  0.67530393     0.26500
H368        H  0.16085376  0.59694281  0.49397330     0.15400
C369        C  0.24959027  0.86484961  0.72877588    -0.11900
C370        C  0.22103260  0.87476644  0.72843904     0.14600
C371        C  0.21177507  0.92427847  0.72600385     0.01500
C372        C  0.23126570  0.96241926  0.72444230    -0.16300
C373        C  0.26002421  0.95261926  0.72474970    -0.11100
C374        C  0.26898439  0.90261412  0.72621673     0.08300
C375        C  0.20210138  0.83218963  0.73244810     0.09300
S376        S  0.17552510  0.94134469  0.72511669    -0.25400
H377        H  0.22383689  0.00019763  0.72355878     0.19600
S378        S  0.30462770  0.88355882  0.72390557    -0.31100
H379        H  0.25685984  0.82693591  0.73074821     0.09900
C380        C  0.19812825  0.79600646  0.69763725     0.03100
C381        C  0.18464631  0.75177616  0.70620853    -0.13400
C382        C  0.17493375  0.74246097  0.74908249    -0.09100
C383        C  0.17655029  0.78119321  0.78214334     0.06500
C384        C  0.19043064  0.82501814  0.77370119    -0.14100
S385        S  0.21130645  0.80530665  0.64283188    -0.31100
H386        H  0.18310084  0.72317936  0.68017478     0.10800
S387        S  0.16354303  0.77618467  0.83732958    -0.28200
H388        H  0.19316406  0.85300526  0.80035091     0.08000
H389        H  0.30834221  0.91496334  0.68684708     0.26400
H390        H  0.20024700  0.76205723  0.62140141     0.21200
H391        H  0.13706457  0.75971967  0.81801925     0.26500
H392        H  0.16432134  0.89744909  0.70535501     0.15400
C393        C  0.23517251  0.36451422  0.78180477    -0.11900
C394        C  0.26345484  0.37517426  0.77995913     0.14600
C395        C  0.27178779  0.42488408  0.77900423     0.01500
C396        C  0.25161354  0.46244633  0.77768187    -0.16300
C397        C  0.22309238  0.45187484  0.77846810    -0.11100
C398        C  0.21502920  0.40197968  0.78204144     0.08300
C399        C  0.28292288  0.33311472  0.77563271     0.09300
S400        S  0.30779528  0.44273769  0.77984416    -0.25400
H401        H  0.25832731  0.50033434  0.77567505     0.19600
S402        S  0.17946286  0.38483740  0.78815971    -0.31100
H403        H  0.22883284  0.32632135  0.78245070     0.09900
C404        C  0.28661872  0.29568012  0.80931946     0.03100
C405        C  0.29925803  0.25100735  0.79895279    -0.13400
C406        C  0.30902837  0.24311316  0.75587204    -0.09100
C407        C  0.30917524  0.28379924  0.72528385     0.06500
C408        C  0.29533727  0.32754743  0.73479434    -0.14100
S409        S  0.27434597  0.30416661  0.86497752    -0.31100
H410        H  0.30008561  0.22112582  0.82368877     0.10800
S411        S  0.32548667  0.28217736  0.67285258    -0.28200
H412        H  0.29338959  0.35686816  0.70936082     0.08000
H413        H  0.18459255  0.33458016  0.79769658     0.26400
H414        H  0.28564133  0.26026188  0.88513911     0.21200
H415        H  0.34992098  0.25892351  0.69383281     0.26500
H416        H  0.31907412  0.40156511  0.80492017     0.15400
C417        C  0.02398251  0.38231323  0.26290205    -0.11900
C418        C  0.01256179  0.34006726  0.24056885     0.14600
C419        C  0.03081014  0.30365478  0.22616629     0.01500
C420        C  0.05984841  0.30993541  0.23574990    -0.16300
C421        C  0.07120223  0.35280973  0.25749939    -0.11100
C422        C  0.05276043  0.38914264  0.27148425     0.08300
C423        C  0.98160540  0.33804431  0.23082643     0.09300
S424        S  0.01867925  0.24968678  0.19375296    -0.25400
H425        H  0.07369296  0.28190791  0.22466598     0.19600
S426        S  0.06429661  0.44440294  0.30214693    -0.31100
H427        H  0.01018217  0.41045359  0.27399050     0.09900
C428        C  0.96520592  0.30317070  0.25128448     0.03100
C429        C  0.93584786  0.30648166  0.24324830    -0.13400
C430        C  0.92262067  0.34500435  0.21664210    -0.09100
C431        C  0.93925726  0.37957957  0.19621110     0.06500
C432        C  0.96828388  0.37567742  0.20349072    -0.14100
S433        S  0.98146665  0.25657061  0.28988393    -0.31100
H434        H  0.92313970  0.28013289  0.25906759     0.10800
S435        S  0.92487267  0.42897717  0.15938250    -0.28200
H436        H  0.98074696  0.40267446  0.18786832     0.08000
H437        H  0.08360293  0.41922903  0.33361745     0.26400
H438        H  0.95665697  0.23470825  0.30062189     0.25200
H439        H  0.90481151  0.39887952  0.13465467     0.26500
H440        H  0.99319707  0.26984767  0.17370178     0.15400
C441        C  0.51736286  0.05851984  0.70549571    -0.11900
C442        C  0.50535640  0.09965950  0.72469971     0.14600
C443        C  0.52288028  0.13663309  0.74600501     0.01500
C444        C  0.55190936  0.13037169  0.74987423    -0.16300
C445        C  0.56412195  0.08793455  0.73285168    -0.11100
C446        C  0.54641980  0.05252358  0.70876295     0.08300
C447        C  0.47470968  0.10056829  0.72560328     0.09300
S448        S  0.50965489  0.19095908  0.77195063    -0.25400
H449        H  0.56499094  0.15794747  0.76841258     0.19600
S450        S  0.55934162  0.99878069  0.68160804    -0.31100
H451        H  0.50394712  0.03038391  0.68857249     0.09900
C452        C  0.45649010  0.12225823  0.68981749     0.03100
C453        C  0.42756883  0.12103963  0.69189658    -0.13400
C454        C  0.41647095  0.09775335  0.72867362    -0.09100
C455        C  0.43484948  0.07682968  0.76486151     0.06500
C456        C  0.46371059  0.07831826  0.76286945    -0.14100
S457        S  0.47007309  0.15069033  0.64122169    -0.31100
H458        H  0.41345523  0.13637989  0.66378961     0.10800
S459        S  0.42277529  0.04852855  0.81470358    -0.28200
H460        H  0.47774879  0.06192579  0.79054344     0.08000
H461        H  0.58247932  0.02289996  0.66696775     0.26400
H462        H  0.44443634  0.16939166  0.62001930     0.21200
H463        H  0.39921114  0.07918085  0.81493941     0.26500
H464        H  0.48393246  0.19358314  0.74393352     0.15400
C465        C  0.74906223  0.17990050  0.94292190    -0.11900
C466        C  0.73260828  0.19083568  0.97826252     0.14600
C467        C  0.70480126  0.17436555  0.97428179     0.01500
C468        C  0.69417282  0.14731618  0.93557787    -0.16300
C469        C  0.71001372  0.13775030  0.89880164    -0.11100
C470        C  0.73824448  0.15327568  0.90353921     0.08300
C471        C  0.74479461  0.21960542  0.01880694     0.09300
S472        S  0.68122291  0.18850867  0.01624202    -0.25400
H473        H  0.67257314  0.13589330  0.93345452     0.19600
S474        S  0.76152734  0.14108691  0.86098406    -0.31100
H475        H  0.77056562  0.19217530  0.94614064     0.09900
C476        C  0.74930623  0.19849212  0.06329718     0.03100
C477        C  0.76003473  0.22761496  0.10091967    -0.13400
C478        C  0.76707146  0.27703206  0.09474560    -0.09100
C479        C  0.76218098  0.29834470  0.05028115     0.06500
C480        C  0.75105063  0.26944303  0.01285233    -0.14100
S481        S  0.74341604  0.13364432  0.07174979    -0.31100
H482        H  0.76491519  0.21087049  0.13468095     0.10800
S483        S  0.77030294  0.36179094  0.03905804    -0.28200
H484        H  0.74729272  0.28585045  0.97875123     0.08000
H485        H  0.75443318  0.09094602  0.85700908     0.26400
H486        H  0.74472646  0.13587256  0.12016016     0.21200
H487        H  0.76886896  0.37908324  0.08421469     0.26500
H488        H  0.69299190  0.23414846  0.03025624     0.15400
C489        C  0.52782623  0.81635729  0.22736976    -0.11900
C490        C  0.51472486  0.84546374  0.25846992     0.14600
C491        C  0.53147719  0.87360341  0.29181032     0.01500
C492        C  0.56048149  0.87444294  0.29140878    -0.16300
C493        C  0.57358141  0.84659060  0.25943131    -0.11100
C494        C  0.55698492  0.81674722  0.22739378     0.08300
C495        C  0.48367267  0.84930892  0.25270126     0.09300
S496        S  0.51719430  0.90957878  0.33561354    -0.25400
H497        H  0.57304984  0.89654479  0.31689383     0.19600
S498        S  0.57154778  0.78076515  0.18405667    -0.31100
H499        H  0.51514628  0.79473904  0.20165336     0.09900
C500        C  0.47003813  0.89289153  0.23581095     0.03100
C501        C  0.44079501  0.89591118  0.23183851    -0.13400
C502        C  0.42449709  0.85593078  0.24335784    -0.09100
C503        C  0.43825968  0.81202747  0.25991948     0.06500
C504        C  0.46757469  0.80914757  0.26411272    -0.14100
S505        S  0.48983698  0.94400305  0.21718235    -0.31100
H506        H  0.43048789  0.92921677  0.21808868     0.10800
S507        S  0.41979632  0.75893769  0.27734641    -0.28200
H508        H  0.47797051  0.77556031  0.27706279     0.08000
H509        H  0.59288402  0.81422708  0.17736106     0.26400
H510        H  0.46693255  0.97452208  0.20190016     0.21200
H511        H  0.39932164  0.78626420  0.29694929     0.26500
H512        H  0.49274105  0.88188506  0.33668409     0.15400
C513        C  0.74191261  0.55091411  0.24360034    -0.11900
C514        C  0.72331076  0.55689281  0.20308843     0.14600
C515        C  0.72404750  0.52251959  0.16682327     0.01500
C516        C  0.74348921  0.48353272  0.17165996    -0.16300
C517        C  0.76252316  0.47826856  0.21182881    -0.11100
C518        C  0.76146853  0.51216958  0.24837622     0.08300
C519        C  0.70533136  0.60186303  0.19915644     0.09300
S520        S  0.70105972  0.52676623  0.11346651    -0.25400
H521        H  0.74412926  0.45762462  0.14350797     0.19600
S522        S  0.78438048  0.50552905  0.30184481    -0.31100
H523        H  0.74134130  0.57736768  0.27127737     0.09900
C524        C  0.68337453  0.60824485  0.22642612     0.03100
C525        C  0.67165509  0.65536551  0.23071375    -0.13400
C526        C  0.68193730  0.69680880  0.20916334    -0.09100
C527        C  0.70129076  0.68862973  0.17661191     0.06500
C528        C  0.71292380  0.64141153  0.17257753    -0.14100
S529        S  0.67159684  0.55688405  0.25820328    -0.31100
H530        H  0.65619882  0.66052217  0.25433429     0.10800
S531        S  0.71279176  0.73768487  0.14142679    -0.28200
H532        H  0.72934484  0.63585245  0.15080370     0.08000
H533        H  0.77520449  0.54764114  0.32393558     0.26400
H534        H  0.65076724  0.58261320  0.27842576     0.21200
H535        H  0.72752582  0.70803657  0.11289422     0.26500
H536        H  0.67907275  0.55083765  0.13207420     0.15400
C537        C  0.74428023  0.06916336  0.27183975    -0.11900
C538        C  0.77220735  0.05831641  0.26687625     0.14600
C539        C  0.78094749  0.00854189  0.26748567     0.01500
C540        C  0.76122233  0.97098620  0.26981009    -0.16300
C541        C  0.73284722  0.98170171  0.27260467    -0.11100
C542        C  0.72473190  0.03184824  0.27552097     0.08300
C543        C  0.79087639  0.10026466  0.25922062     0.09300
S544        S  0.81670633  0.99041869  0.26431833    -0.25400
H545        H  0.76807110  0.93300400  0.26820639     0.19600
S546        S  0.68999372  0.05136201  0.28442405    -0.31100
H547        H  0.73756128  0.10732586  0.27244136     0.09900
C548        C  0.79826199  0.11109940  0.21497294     0.03100
C549        C  0.81087387  0.15647130  0.20720213    -0.13400
C550        C  0.81626854  0.19141825  0.24282441    -0.09100
C551        C  0.81143184  0.17816961  0.28814992     0.06500
C552        C  0.79845397  0.13310543  0.29566511    -0.14100
S553        S  0.78959013  0.06893036  0.16752297    -0.31100
H554        H  0.81457057  0.16619012  0.17245541     0.10800
S555        S  0.82146875  0.21852239  0.33661980    -0.28200
H556        H  0.79327671  0.12397369  0.32975283     0.08000
H557        H  0.68663824  0.01477202  0.31738825     0.26400
H558        H  0.80186018  0.09600762  0.13416249     0.21200
H559        H  0.81080363  0.18964598  0.37045684     0.26500
H560        H  0.82902466  0.03453079  0.28155396     0.15400
C561        C  0.67424772  0.94539041  0.05379683    -0.11900
C562        C  0.64691158  0.94001960  0.03186340     0.14600
C563        C  0.62663979  0.91704305  0.05553711     0.01500
C564        C  0.63404763  0.90057925  0.10067430    -0.16300
C565        C  0.66105329  0.90777229  0.12341402    -0.11100
C566        C  0.68137016  0.93073764  0.09962722     0.08300
C567        C  0.64006522  0.96022190  0.98490465     0.09300
S568        S  0.59082211  0.90906932  0.03087117    -0.25400
H569        H  0.61829485  0.88317865  0.11873805     0.19600
S570        S  0.71580385  0.94625793  0.12668621    -0.31100
H571        H  0.68980807  0.96324857  0.03566094     0.09900
C572        C  0.64042100  0.01138481  0.97696838     0.03100
C573        C  0.63513683  0.02912792  0.93178525    -0.13400
C574        C  0.62969659  0.99682421  0.89421405    -0.09100
C575        C  0.62789268  0.94564018  0.90245837     0.06500
C576        C  0.63324089  0.92788943  0.94782656    -0.14100
S577        S  0.64796010  0.05424266  0.02424657    -0.31100
H578        H  0.63665052  0.06826837  0.92554674     0.10800
S579        S  0.61822197  0.90280697  0.85583954    -0.28200
H580        H  0.63243280  0.88873244  0.95459869     0.08000
H581        H  0.70642534  0.96451535  0.16731379     0.26400
H582        H  0.64217169  0.09751472  0.99826837     0.21200
H583        H  0.62218788  0.85940970  0.88223678     0.26500
H584        H  0.58904175  0.95197463  0.00366944     0.15400
C585        C  0.68093706  0.96207259  0.46541360    -0.11900
C586        C  0.65916207  0.95566283  0.49254408     0.14600
C587        C  0.63546631  0.92794551  0.47501312     0.01500
C588        C  0.63390053  0.90820845  0.43043784    -0.16300
C589        C  0.65581774  0.91454172  0.40354774    -0.11100
C590        C  0.67996179  0.94052431  0.42192262     0.08300
C591        C  0.66198033  0.97841078  0.53887347     0.09300
S592        S  0.60675575  0.91609327  0.50774608    -0.25400
H593        H  0.61544769  0.88799502  0.41657980     0.19600
S594        S  0.71087482  0.94536960  0.39290117    -0.31100
H595        H  0.69921366  0.98299593  0.47882542     0.09900
C596        C  0.68373956  0.96446026  0.57321314     0.03100
C597        C  0.68543870  0.98655642  0.61680670    -0.13400
C598        C  0.66541481  0.02115590  0.62710099    -0.09100
C599        C  0.64407080  0.03602077  0.59239718     0.06500
C600        C  0.64275583  0.01480704  0.54852470    -0.14100
S601        S  0.70807295  0.91586899  0.56289993    -0.31100
H602        H  0.70134739  0.97455104  0.64393782     0.10800
S603        S  0.61772435  0.08118864  0.60186301    -0.28200
H604        H  0.62636136  0.02611565  0.52187568     0.08000
H605        H  0.70828510  0.89863406  0.37199797     0.26400
H606        H  0.72388175  0.91700187  0.60668139     0.21200
H607        H  0.63260648  0.10428951  0.64021572     0.26500
H608        H  0.62289404  0.91465795  0.55120618     0.15400
C609        C  0.96320437  0.56701234  0.77881116    -0.11900
C610        C  0.97592806  0.60163663  0.75248886     0.14600
C611        C  0.95917060  0.63302902  0.72207548     0.01500
C612        C  0.93018237  0.62736457  0.71683339    -0.16300
C613        C  0.91737578  0.59118480  0.74150569    -0.11100
C614        C  0.93412691  0.56196457  0.77417810     0.08300
C615        C  0.00668863  0.60178207  0.75537616     0.09300
S616        S  0.97340115  0.67905974  0.68694827    -0.25400
H617        H  0.91762649  0.65010955  0.69173244     0.19600
S618        S  0.91972865  0.51840438  0.81142158    -0.31100
H619        H  0.97605692  0.54347749  0.80279206     0.09900
C620        C  0.02311311  0.63018238  0.78853997     0.03100
C621        C  0.05231590  0.62736390  0.79127341    -0.13400
C622        C  0.06537718  0.59669908  0.76132429    -0.09100
C623        C  0.04868684  0.57025215  0.72658289     0.06500
C624        C  0.01958719  0.57255637  0.72438150    -0.14100
S625        S  0.00680853  0.66964743  0.82748865    -0.31100
H626        H  0.06499881  0.64760263  0.81799640     0.10800
S627        S  0.06322714  0.53445168  0.68315071    -0.28200
H628        H  0.00686247  0.55162061  0.69818463     0.08000
H629        H  0.89582074  0.54685464  0.81628033     0.26400
H630        H  0.03133489  0.69374137  0.84624691     0.21200
H631        H  0.08542967  0.56705882  0.67994316     0.26500
H632        H  0.99839648  0.68705915  0.71582160     0.15400
C633        C  0.77028040  0.64333597  0.49559840    -0.11900
C634        C  0.75169899  0.68306011  0.49663784     0.14600
C635        C  0.73924404  0.69201643  0.53750241     0.01500
C636        C  0.74917168  0.66659288  0.57806468    -0.16300
C637        C  0.76959343  0.62969263  0.57752529    -0.11100
C638        C  0.77821834  0.61526134  0.53488690     0.08300
C639        C  0.74510840  0.71228507  0.45374365     0.09300
S640        S  0.71053959  0.73442617  0.54002256    -0.25400
H641        H  0.74163301  0.67682365  0.61032739     0.19600
S642        S  0.79924990  0.56122411  0.52828322    -0.31100
H643        H  0.77871880  0.63403007  0.46384928     0.09900
C644        C  0.74870403  0.76394338  0.45212185     0.03100
C645        C  0.73983211  0.78936262  0.41092838    -0.13400
C646        C  0.72935878  0.76371672  0.37086193    -0.09100
C647        C  0.72897760  0.71185639  0.37153386     0.06500
C648        C  0.73605681  0.68685614  0.41292650    -0.14100
S649        S  0.76478372  0.79742619  0.50183999    -0.31100
H650        H  0.73999152  0.82924899  0.41031273     0.10800
S651        S  0.71767919  0.67552496  0.32134133    -0.28200
H652        H  0.73405339  0.64709381  0.41342226     0.08000
H653        H  0.79105659  0.53577759  0.56647941     0.26400
H654        H  0.76272649  0.84450259  0.48148692     0.21200
H655        H  0.72755668  0.70829989  0.28977060     0.26500
H656        H  0.69969817  0.72986657  0.49325861     0.15400
C657        C  0.84578335  0.41850306  0.53291485    -0.11900
C658        C  0.85283199  0.44724633  0.49624232     0.14600
C659        C  0.86205066  0.49602182  0.50499736     0.01500
C660        C  0.86390581  0.51480388  0.55001857    -0.16300
C661        C  0.85493324  0.48734734  0.58648216    -0.11100
C662        C  0.84631178  0.43779088  0.57764667     0.08300
C663        C  0.84804423  0.42626826  0.44894968     0.09300
S664        S  0.86954132  0.53765052  0.45985697    -0.25400
H665        H  0.87042152  0.55266816  0.55566159     0.19600
S666        S  0.83514715  0.39807368  0.62178566    -0.31100
H667        H  0.83900816  0.38099454  0.52591448     0.09900
C668        C  0.86997319  0.41720650  0.42220870     0.03100
C669        C  0.86370617  0.40093931  0.37646262    -0.13400
C670        C  0.83597055  0.39195017  0.35702881    -0.09100
C671        C  0.81438228  0.39681132  0.38573809     0.06500
C672        C  0.82060517  0.41481672  0.43073333    -0.14100
S673        S  0.90589829  0.42579315  0.44636662    -0.31100
H674        H  0.88057295  0.39591897  0.35550548     0.10800
S675        S  0.77839647  0.38233627  0.36727385    -0.28200
H676        H  0.80378315  0.42038123  0.45178177     0.08000
H677        H  0.82358106  0.36045771  0.59238784     0.26400
H678        H  0.91813661  0.41004435  0.40739870     0.21200
H679        H  0.78463002  0.33396922  0.35413132     0.26500
H680        H  0.84934045  0.51893393  0.42560987     0.15400
C681        C  0.85187100  0.44494569  0.99791980    -0.11900
C682        C  0.83572088  0.48806628  0.99330968     0.14600
C683        C  0.82439191  0.50744563  0.03171925     0.01500
C684        C  0.82857044  0.48226602  0.07368326    -0.16300
C685        C  0.84402776  0.43793286  0.07853389    -0.11100
C686        C  0.85629984  0.41955909  0.04003407     0.08300
C687        C  0.82942335  0.50948572  0.94691979     0.09300
S688        S  0.80360033  0.56307818  0.02902326    -0.25400
H689        H  0.81897914  0.49710484  0.10250811     0.19600
S690        S  0.87742194  0.36407290  0.04303813    -0.31100
H691        H  0.86044800  0.43067598  0.96789727     0.09900
C692        C  0.84901688  0.53876935  0.92765736     0.03100
C693        C  0.84387596  0.55230376  0.88112879    -0.13400
C694        C  0.81947580  0.53717675  0.85371790    -0.09100
C695        C  0.79897330  0.51077488  0.87418307     0.06500
C696        C  0.80431735  0.49674576  0.92048515    -0.14100
S697        S  0.88086548  0.55748636  0.96201069    -0.31100
H698        H  0.85934941  0.57319207  0.86549974     0.10800
S699        S  0.76711794  0.48944830  0.84197596    -0.28200
H700        H  0.78927829  0.47424771  0.93561232     0.08000
H701        H  0.88428279  0.36507433  0.99750046     0.26400
H702        H  0.89154526  0.58533000  0.92746200     0.21200
H703        H  0.75815472  0.53723373  0.82836108     0.26500
H704        H  0.81583082  0.58566645  0.99306955     0.15400
C705        C  0.78413572  0.78048228  0.79666460    -0.11900
C706        C  0.77837384  0.81625181  0.76217391     0.14600
C707        C  0.78934884  0.81023338  0.71967759     0.01500
C708        C  0.80275797  0.76601103  0.71052711    -0.16300
C709        C  0.80580007  0.72779893  0.74323670    -0.11100
C710        C  0.79810646  0.73673244  0.78794234     0.08300
C711        C  0.75762888  0.85533984  0.76879105     0.09300
S712        S  0.78475265  0.85587539  0.67439375    -0.25400
H713        H  0.80889716  0.76009282  0.67637950     0.19600
S714        S  0.80441830  0.69293402  0.83466841    -0.31100
H715        H  0.77642205  0.78552546  0.82978463     0.09900
C716        C  0.73021932  0.85258459  0.74607547     0.03100
C717        C  0.71143331  0.89133569  0.75061819    -0.13400
C718        C  0.71906058  0.93260291  0.77855451    -0.09100
C719        C  0.74588825  0.93284113  0.80459181     0.06500
C720        C  0.76497958  0.89479356  0.79872461    -0.14100
S721        S  0.71909556  0.79950588  0.71123255    -0.31100
H722        H  0.69090827  0.88992492  0.73109783     0.10800
S723        S  0.75691488  0.97942234  0.84679099    -0.28200
H724        H  0.78570382  0.89585777  0.81769233     0.08000
H725        H  0.82826866  0.67160773  0.81911067     0.26400
H726        H  0.69071036  0.81267420  0.70255043     0.21200
H727        H  0.73094671  0.98226474  0.86417838     0.26500
H728        H  0.78241141  0.89657049  0.70356738     0.15400
C729        C  0.72104971  0.39108287  0.67992299    -0.11900
C730        C  0.72667195  0.35654493  0.71575742     0.14600
C731        C  0.75147456  0.36112125  0.74652577     0.01500
C732        C  0.76925202  0.40087838  0.74217348    -0.16300
C733        C  0.76358541  0.43606585  0.70688582    -0.11100
C734        C  0.73931490  0.43037010  0.67482600     0.08300
C735        C  0.70729574  0.31464036  0.71921844     0.09300
S736        S  0.76189458  0.31730382  0.79199682    -0.25400
H737        H  0.78771334  0.40444677  0.76706344     0.19600
S738        S  0.73099186  0.47056284  0.62584681    -0.31100
H739        H  0.70244517  0.38704032  0.65543041     0.09900
C740        C  0.69216892  0.30889650  0.75739838     0.03100
C741        C  0.67868231  0.26399625  0.76374290    -0.13400
C742        C  0.67959421  0.22488461  0.73220235    -0.09100
C743        C  0.69201184  0.23335910  0.69119799     0.06500
C744        C  0.70601979  0.27760960  0.68559176    -0.14100
S745        S  0.69100479  0.35806080  0.79892785    -0.31100
H746        H  0.66893236  0.25836469  0.79489568     0.10800
S747        S  0.69117763  0.18905753  0.64498166    -0.28200
H748        H  0.71689920  0.28251159  0.65545853     0.08000
H749        H  0.75881515  0.47551466  0.61654160     0.26400
H750        H  0.67279330  0.33475709  0.82623890     0.21200
H751        H  0.66452768  0.17139238  0.65109213     0.26500
H752        H  0.75072453  0.27559792  0.76801950     0.15400
loop_ 
_geom_bond_atom_site_label_1 
_geom_bond_atom_site_label_2 
_geom_bond_distance 
_geom_bond_site_symmetry_2 
_ccdc_geom_bond_type 
O1           C16   1.255       .  A
O1           Al9   1.873       .  S
C2           O12   1.260       .  A
C2            O3   1.273       .  A
C2          C661   1.496       .  S
O3           Al5   1.948       .  S
O4            C6   1.253       .  A
O4           Al5   1.852       .  S
Al5          O13   1.887       .  S
Al5          O15   1.934       .  S
Al5          O14   1.776       .  S
C6           O19   1.265       .  A
C6          C637   1.471       .  S
O7           C17   1.258       .  A
O7           Al9   1.901       .  S
O8           C21   1.263       .  A
O8          Al18   1.876       .  S
Al9          O22   1.931       .  S
Al9          O19   1.934       .  S
Al9          O14   1.781       .  S
O10          C17   1.262       .  A
O10         Al18   1.919       .  S
O11          C20   1.262       .  A
O11         Al18   1.926       .  S
O12         Al18   1.879       .  S
O13          C20   1.256       .  A
O14         Al18   1.776       .  S
O15          C16   1.266       .  A
C16         C709   1.482       .  S
C17         C733   1.487       .  S
C20         C613   1.479       .  S
C21          O22   1.268       .  A
C21         C694   1.469       .  S
O23          C38   1.273       .  A
O23         Al31   1.941       .  S
C24          O34   1.273       .  A
C24          O25   1.261       .  A
C24         C589   1.466       .  S
O25         Al27   1.863       .  S
O26          C28   1.260       .  A
O26         Al27   1.925       .  S
Al27         O35   1.927       .  S
Al27         O37   1.873       .  S
Al27         O36   1.779       .  S
C28          O41   1.259       .  A
C28         C541   1.494       .  S
O29          C39   1.264       .  A
O29         Al31   1.932       .  S
O30          C43   1.268       .  A
O30         Al40   1.936       .  S
Al31         O44   1.886       .  S
Al31         O41   1.910       .  S
Al31         O36   1.778       .  S
O32          C39   1.253       .  A
O32         Al40   1.862       .  S
O33          C42   1.259       .  A
O33         Al40   1.910       .  S
O34         Al40   1.946       .  S
O35          C42   1.261       .  A
O36         Al40   1.777       .  S
O37          C38   1.265       .  A
C38         C565   1.471       .  S
C39         C646   1.463       .  S
C42         C493   1.484       .  S
C43          O44   1.257       .  A
C43         C526   1.502       .  S
O45          C60   1.257       .  A
O45         Al53   1.882       .  S
C46          O56   1.260   1_545  A
C46          O47   1.271       .  A
C46         C574   1.475   1_545  S
O47         Al49   1.937       .  S
O48          C50   1.255       .  A
O48         Al49   1.862       .  S
Al49         O57   1.900       .  S
Al49         O59   1.934       .  S
Al49         O58   1.773       .  S
C50          O63   1.267       .  A
C50         C469   1.494       .  S
O51          C61   1.258   1_545  A
O51         Al53   1.901       .  S
O52          C65   1.263       .  A
O52         Al62   1.876       .  S
Al53         O66   1.939       .  S
Al53         O63   1.945       .  S
Al53         O58   1.776       .  S
O54          C61   1.262       .  A
O54         Al62   1.922   1_565  S
O55          C64   1.263       .  A
O55         Al62   1.930       .  S
O56         Al62   1.875   1_565  S
O57          C64   1.260       .  A
O58         Al62   1.779       .  S
O59          C60   1.266       .  A
C60         C742   1.491       .  S
C61         C718   1.493       .  S
C64         C445   1.489       .  S
C65          O66   1.272       .  A
C65         C598   1.464       .  S
O67          C82   1.271       .  A
O67         Al75   1.946       .  S
C68          O78   1.267       .  A
C68          O69   1.261       .  A
C68         C685   1.485       .  S
O69         Al71   1.876       .  S
O70          C72   1.264       .  A
O70         Al71   1.933       .  S
Al71         O79   1.928       .  S
Al71         O81   1.880       .  S
Al71         O80   1.776       .  S
C72          O85   1.260       .  A
C72         C517   1.485       .  S
O73          C83   1.267       .  A
O73         Al75   1.940       .  S
O74          C87   1.268       .  A
O74         Al84   1.940       .  S
Al75         O88   1.888       .  S
Al75         O85   1.909       .  S
Al75         O80   1.773       .  S
O76          C83   1.254       .  A
O76         Al84   1.869       .  S
O77          C86   1.261       .  A
O77         Al84   1.905       .  S
O78         Al84   1.930       .  S
O79          C86   1.265       .  A
O80         Al84   1.775       .  S
O81          C82   1.262       .  A
C82         C670   1.491       .  S
C83         C478   1.467       .  S
C86         C430   1.482       .  S
C87          O88   1.260       .  A
C87         C550   1.490       .  S
O89         C104   1.262       .  A
O89         Al97   1.895       .  S
C90         O100   1.260       .  A
C90          O91   1.266       .  A
C90         C334   1.491       .  S
O91         Al93   1.931       .  S
O92          C94   1.256       .  A
O92         Al93   1.869       .  S
Al93        O101   1.893       .  S
Al93        O103   1.936       .  S
Al93        O102   1.777       .  S
C94         O107   1.267       .  A
C94         C310   1.477       .  S
O95         C105   1.261       .  A
O95         Al97   1.899       .  S
O96         C109   1.259       .  A
O96        Al106   1.883       .  S
Al97        O110   1.938       .  S
Al97        O107   1.940       .  S
Al97        O102   1.780       .  S
O98         C105   1.264       .  A
O98        Al106   1.927       .  S
O99         C108   1.264       .  A
O99        Al106   1.924       .  S
O100       Al106   1.882       .  S
O101        C108   1.260       .  A
O102       Al106   1.778       .  S
O103        C104   1.266       .  A
C104        C382   1.498       .  S
C105        C397   1.493       .  S
C108        C622   1.479       .  S
C109        O110   1.268       .  A
C109        C358   1.476       .  S
O111        C126   1.270       .  A
O111       Al119   1.942       .  S
C112        O122   1.267       .  A
C112        O113   1.260       .  A
C112        C277   1.482       .  S
O113       Al115   1.873       .  S
O114        C116   1.266       .  A
O114       Al115   1.930       .  S
Al115       O123   1.929       .  S
Al115       O125   1.882       .  S
Al115       O124   1.772       .  S
C116        O129   1.265       .  A
C116        C238   1.493       .  S
O117        C127   1.267       .  A
O117       Al119   1.953       .  S
O118        C131   1.268       .  A
O118       Al128   1.938       .  S
Al119       O132   1.889       .  S
Al119       O129   1.914       .  S
Al119       O124   1.780       .  S
O120        C127   1.255       .  A
O120       Al128   1.869       .  S
O121        C130   1.261       .  A
O121       Al128   1.902       .  S
O122       Al128   1.928       .  S
O123        C130   1.265       .  A
O124       Al128   1.772       .  S
O125        C126   1.262       .  A
C126        C262   1.472       .  S
C127        C301   1.490       .  S
C130        C502   1.490       .  S
C131        O132   1.261       .  A
C131        C205   1.479       .  S
O133        C148   1.273       .  A
O133       Al141   1.949       .  S
C134        O144   1.271       .  A
C134        O135   1.264       .  A
C134        C349   1.489       .  S
O135       Al137   1.883       .  S
O136        C138   1.260       .  A
O136       Al137   1.924       .  S
Al137       O145   1.920       .  S
Al137       O147   1.874       .  S
Al137       O146   1.780       .  S
C138        O151   1.258       .  A
C138        C214   1.492       .  S
O139        C149   1.267       .  A
O139       Al141   1.944       .  S
O140        C153   1.265       .  A
O140       Al150   1.931       .  S
Al141       O154   1.882       .  S
Al141       O151   1.903       .  S
Al141       O146   1.781       .  S
O142        C149   1.252       .  A
O142       Al150   1.851       .  S
O143        C152   1.258       .  A
O143       Al150   1.903       .  S
O144       Al150   1.940       .  S
O145        C152   1.261       .  A
O146       Al150   1.778       .  S
O147        C148   1.263       .  A
C148        C325   1.474       .  S
C149        C181   1.479       .  S
C152        C421   1.485       .  S
C153        O154   1.257       .  A
C153        C229   1.485       .  S
O155        C170   1.263       .  A
O155       Al163   1.894       .  S
C156        O166   1.261       .  A
C156        O157   1.265       .  A
C156        C253   1.477   1_545  S
O157       Al159   1.920       .  S
O158        C160   1.252       .  A
O158       Al159   1.871       .  S
Al159       O167   1.891       .  S
Al159       O169   1.937       .  S
Al159       O168   1.774       .  S
C160        O173   1.265       .  A
C160        C190   1.463       .  S
O161        C171   1.265   1_545  A
O161       Al163   1.914       .  S
O162        C175   1.262       .  A
O162       Al172   1.883       .  S
Al163       O176   1.927       .  S
Al163       O173   1.938       .  S
Al163       O168   1.779       .  S
O164        C171   1.265       .  A
O164       Al172   1.930   1_565  S
O165        C174   1.265       .  A
O165       Al172   1.930       .  S
O166       Al172   1.885       .  S
O167        C174   1.259       .  A
O168       Al172   1.772       .  S
O169        C170   1.267       .  A
C170        C406   1.496       .  S
C171        C373   1.497       .  S
C174        C454   1.477       .  S
C175        O176   1.266       .  A
C175        C286   1.469       .  S
C177        C178   1.401       .  A
C177        C182   1.392       .  A
C177        H187   1.083       .  S
C178        C183   1.489       .  S
C178        C179   1.418       .  A
C179        C180   1.405       .  A
C179        S184   1.804       .  S
C180        C181   1.403       .  A
C180        H185   1.083       .  S
C181        C182   1.416       .  A
C182        S186   1.805       .  S
C183        C188   1.415       .  A
C183        C192   1.407       .  A
S184        H200   1.407       .  S
S186        H197   1.408       .  S
C188        C189   1.400       .  A
C188        S193   1.808       .  S
C189        C190   1.400       .  A
C189        H194   1.083       .  S
C190        C191   1.408       .  A
C191        C192   1.400       .  A
C191        S195   1.804       .  S
C192        H196   1.083       .  S
S193        H198   1.407       .  S
S195        H199   1.407       .  S
C201        C202   1.403       .  A
C201        C206   1.406       .  A
C201        H211   1.083       .  S
C202        C207   1.482       .  S
C202        C203   1.412       .  A
C203        C204   1.400       .  A
C203        S208   1.805       .  S
C204        C205   1.405       .  A
C204        H209   1.085       .  S
C205        C206   1.412       .  A
C206        S210   1.806       .  S
C207        C212   1.407       .  A
C207        C216   1.399       .  A
S208        H224   1.404       .  S
S210        H221   1.406       .  S
C212        C213   1.407       .  A
C212        S217   1.805       .  S
C213        C214   1.410       .  A
C213        H218   1.082       .  S
C214        C215   1.419       .  A
C215        C216   1.399       .  A
C215        S219   1.802       .  S
C216        H220   1.084       .  S
S217        H222   1.407       .  S
S219        H223   1.404       .  S
C225        C226   1.404       .  A
C225        C230   1.406       .  A
C225        H235   1.083       .  S
C226        C231   1.488       .  S
C226        C227   1.416       .  A
C227        C228   1.402       .  A
C227        S232   1.806       .  S
C228        C229   1.404       .  A
C228        H233   1.084       .  S
C229        C230   1.414       .  A
C230        S234   1.808       .  S
C231        C236   1.409       .  A
C231        C240   1.401       .  A
S232        H248   1.404       .  S
S234        H245   1.407       .  S
C236        C237   1.410   1_545  A
C236        S241   1.805       .  S
C237        C238   1.410       .  A
C237        H242   1.082       .  S
C238        C239   1.418   1_565  A
C239        C240   1.403       .  A
C239        S243   1.808       .  S
C240        H244   1.082       .  S
S241        H246   1.407   1_545  S
S243        H247   1.407       .  S
C249        C250   1.403       .  A
C249        C254   1.398   1_565  A
C249        H259   1.084   1_565  S
C250        C255   1.478       .  S
C250        C251   1.411       .  A
C251        C252   1.397       .  A
C251        S256   1.805       .  S
C252        C253   1.406       .  A
C252        H257   1.084       .  S
C253        C254   1.415   1_565  A
C254        S258   1.804       .  S
C255        C260   1.410       .  A
C255        C264   1.401       .  A
S256        H272   1.405       .  S
S258        H269   1.408       .  S
C260        C261   1.403       .  A
C260        S265   1.808       .  S
C261        C262   1.404       .  A
C261        H266   1.083       .  S
C262        C263   1.413       .  A
C263        C264   1.397       .  A
C263        S267   1.805       .  S
C264        H268   1.083       .  S
S265        H270   1.407       .  S
S267        H271   1.406       .  S
C273        C274   1.401   1_565  A
C273        C278   1.398       .  A
C273        H283   1.084   1_554  S
C274        C279   1.471   1_554  S
C274        C275   1.406       .  A
C275        C276   1.394   1_545  A
C275        S280   1.804       .  S
C276        C277   1.409       .  A
C276        H281   1.082   1_565  S
C277        C278   1.417       .  A
C278        S282   1.802       .  S
C279        C284   1.406       .  A
C279        C288   1.401       .  A
S280        H296   1.406       .  S
S282        H293   1.408       .  S
C284        C285   1.399       .  A
C284        S289   1.805       .  S
C285        C286   1.404       .  A
C285        H290   1.082       .  S
C286        C287   1.413       .  A
C287        C288   1.396       .  A
C287        S291   1.801   1_545  S
C288        H292   1.084   1_545  S
S289        H294   1.407       .  S
S291        H295   1.407   1_565  S
C297        C298   1.408       .  A
C297        C302   1.409       .  A
C297        H307   1.082       .  S
C298        C303   1.485   1_554  S
C298        C299   1.407       .  A
C299        C300   1.393       .  A
C299        S304   1.805   1_554  S
C300        C301   1.411       .  A
C300        H305   1.083       .  S
C301        C302   1.415       .  A
C302        S306   1.806       .  S
C303        C308   1.408       .  A
C303        C312   1.406       .  A
S304        H320   1.407       .  S
S306        H317   1.407       .  S
C308        C309   1.401       .  A
C308        S313   1.807   1_556  S
C309        C310   1.406       .  A
C309        H314   1.083       .  S
C310        C311   1.412       .  A
C311        C312   1.403       .  A
C311        S315   1.808       .  S
C312        H316   1.082       .  S
S313        H318   1.407       .  S
S315        H319   1.407       .  S
C321        C322   1.401       .  A
C321        C326   1.399       .  A
C321        H331   1.084       .  S
C322        C327   1.477   1_554  S
C322        C323   1.414       .  A
C323        C324   1.400       .  A
C323        S328   1.806       .  S
C324        C325   1.402       .  A
C324        H329   1.084       .  S
C325        C326   1.414       .  A
C326        S330   1.806       .  S
C327        C332   1.405       .  A
C327        C336   1.400       .  A
S328        H344   1.402   1_554  S
S330        H341   1.407       .  S
C332        C333   1.402       .  A
C332        S337   1.806       .  S
C333        C334   1.412       .  A
C333        H338   1.081       .  S
C334        C335   1.419       .  A
C335        C336   1.399       .  A
C335        S339   1.802       .  S
C336        H340   1.084   1_556  S
S337        H342   1.407       .  S
S339        H343   1.408       .  S
C345        C346   1.401       .  A
C345        C350   1.404       .  A
C345        H355   1.082       .  S
C346        C351   1.477       .  S
C346        C347   1.406       .  A
C347        C348   1.396       .  A
C347        S352   1.804       .  S
C348        C349   1.409       .  A
C348        H353   1.081       .  S
C349        C350   1.419       .  A
C350        S354   1.809       .  S
C351        C356   1.407       .  A
C351        C360   1.401       .  A
S352        H368   1.406       .  S
S354        H365   1.406       .  S
C356        C357   1.404       .  A
C356        S361   1.806       .  S
C357        C358   1.406       .  A
C357        H362   1.081       .  S
C358        C359   1.413       .  A
C359        C360   1.396       .  A
C359        S363   1.801       .  S
C360        H364   1.084       .  S
S361        H366   1.407       .  S
S363        H367   1.405       .  S
C369        C370   1.401       .  A
C369        C374   1.399       .  A
C369        H379   1.085       .  S
C370        C375   1.490       .  S
C370        C371   1.413       .  A
C371        C372   1.406       .  A
C371        S376   1.804       .  S
C372        C373   1.410       .  A
C372        H377   1.084   1_565  S
C373        C374   1.421       .  A
C374        S378   1.802       .  S
C375        C380   1.409       .  A
C375        C384   1.402       .  A
S376        H392   1.405       .  S
S378        H389   1.405       .  S
C380        C381   1.405       .  A
C380        S385   1.807       .  S
C381        C382   1.410       .  A
C381        H386   1.082       .  S
C382        C383   1.422       .  A
C383        C384   1.404       .  A
C383        S387   1.801       .  S
C384        H388   1.083       .  S
S385        H390   1.407       .  S
S387        H391   1.408       .  S
C393        C394   1.403       .  A
C393        C398   1.403       .  A
C393        H403   1.083       .  S
C394        C399   1.489       .  S
C394        C395   1.411       .  A
C395        C396   1.403       .  A
C395        S400   1.803       .  S
C396        C397   1.410       .  A
C396        H401   1.083       .  S
C397        C398   1.418       .  A
C398        S402   1.809       .  S
C399        C404   1.409       .  A
C399        C408   1.403       .  A
S400        H416   1.406       .  S
S402        H413   1.407       .  S
C404        C405   1.403       .  A
C404        S409   1.807       .  S
C405        C406   1.409       .  A
C405        H410   1.083       .  S
C406        C407   1.420       .  A
C407        C408   1.403       .  A
C407        S411   1.801       .  S
C408        H412   1.084       .  S
S409        H414   1.407       .  S
S411        H415   1.408       .  S
C417        C418   1.401       .  A
C417        C422   1.394       .  A
C417        H427   1.085       .  S
C418        C423   1.487   1_455  S
C418        C419   1.416       .  A
C419        C420   1.406       .  A
C419        S424   1.804       .  S
C420        C421   1.407       .  A
C420        H425   1.084       .  S
C421        C422   1.417       .  A
C422        S426   1.802       .  S
C423        C428   1.413       .  A
C423        C432   1.401       .  A
S424        H440   1.405   1_455  S
S426        H437   1.402       .  S
C428        C429   1.410       .  A
C428        S433   1.806       .  S
C429        C430   1.406       .  A
C429        H434   1.083       .  S
C430        C431   1.415       .  A
C431        C432   1.394       .  A
C431        S435   1.801       .  S
C432        H436   1.084       .  S
S433        H438   1.407       .  S
S435        H439   1.401       .  S
C441        C442   1.402       .  A
C441        C446   1.402       .  A
C441        H451   1.083       .  S
C442        C447   1.482       .  S
C442        C443   1.411       .  A
C443        C444   1.401       .  A
C443        S448   1.805       .  S
C444        C445   1.408       .  A
C444        H449   1.083       .  S
C445        C446   1.418       .  A
C446        S450   1.803   1_545  S
C447        C452   1.408       .  A
C447        C456   1.403       .  A
S448        H464   1.403       .  S
S450        H461   1.406   1_565  S
C452        C453   1.404       .  A
C452        S457   1.805       .  S
C453        C454   1.406       .  A
C453        H458   1.083       .  S
C454        C455   1.412       .  A
C455        C456   1.401       .  A
C455        S459   1.802       .  S
C456        H460   1.083       .  S
S457        H462   1.407       .  S
S459        H463   1.406       .  S
C465        C466   1.404       .  A
C465        C470   1.405       .  A
C465        H475   1.084       .  S
C466        C471   1.480   1_556  S
C466        C467   1.407       .  A
C467        C468   1.393       .  A
C467        S472   1.807   1_556  S
C468        C469   1.412       .  A
C468        H473   1.083       .  S
C469        C470   1.418       .  A
C470        S474   1.800       .  S
C471        C476   1.411       .  A
C471        C480   1.403       .  A
S472        H488   1.405       .  S
S474        H485   1.406       .  S
C476        C477   1.401       .  A
C476        S481   1.806       .  S
C477        C478   1.402       .  A
C477        H482   1.084       .  S
C478        C479   1.413       .  A
C479        C480   1.399       .  A
C479        S483   1.806       .  S
C480        H484   1.084   1_554  S
S481        H486   1.407       .  S
S483        H487   1.407       .  S
C489        C490   1.406       .  A
C489        C494   1.406       .  A
C489        H499   1.084       .  S
C490        C495   1.490       .  S
C490        C491   1.414       .  A
C491        C492   1.401       .  A
C491        S496   1.806       .  S
C492        C493   1.405       .  A
C492        H497   1.084       .  S
C493        C494   1.413       .  A
C494        S498   1.802       .  S
C495        C500   1.410       .  A
C495        C504   1.404       .  A
S496        H512   1.405       .  S
S498        H509   1.407       .  S
C500        C501   1.403       .  A
C500        S505   1.808       .  S
C501        C502   1.407       .  A
C501        H506   1.083       .  S
C502        C503   1.417       .  A
C503        C504   1.406       .  A
C503        S507   1.802       .  S
C504        H508   1.084       .  S
S505        H510   1.406       .  S
S507        H511   1.407       .  S
C513        C514   1.404       .  A
C513        C518   1.405       .  A
C513        H523   1.083       .  S
C514        C519   1.490       .  S
C514        C515   1.413       .  A
C515        C516   1.406       .  A
C515        S520   1.803       .  S
C516        C517   1.406       .  A
C516        H521   1.084       .  S
C517        C518   1.413       .  A
C518        S522   1.808       .  S
C519        C524   1.408       .  A
C519        C528   1.400       .  A
S520        H536   1.406       .  S
S522        H533   1.407       .  S
C524        C525   1.407       .  A
C524        S529   1.805       .  S
C525        C526   1.409       .  A
C525        H530   1.082       .  S
C526        C527   1.425       .  A
C527        C528   1.407       .  A
C527        S531   1.810       .  S
C528        H532   1.083       .  S
S529        H534   1.407       .  S
S531        H535   1.407       .  S
C537        C538   1.402       .  A
C537        C542   1.400       .  A
C537        H547   1.084       .  S
C538        C543   1.488       .  S
C538        C539   1.412       .  A
C539        C540   1.405   1_545  A
C539        S544   1.804   1_545  S
C540        C541   1.410       .  A
C540        H545   1.083       .  S
C541        C542   1.419   1_565  A
C542        S546   1.803       .  S
C543        C548   1.410       .  A
C543        C552   1.402       .  A
S544        H560   1.405   1_565  S
S546        H557   1.405       .  S
C548        C549   1.406       .  A
C548        S553   1.807       .  S
C549        C550   1.408       .  A
C549        H554   1.082       .  S
C550        C551   1.416       .  A
C551        C552   1.406       .  A
C551        S555   1.809       .  S
C552        H556   1.082       .  S
S553        H558   1.407       .  S
S555        H559   1.406       .  S
C561        C562   1.403       .  A
C561        C566   1.397       .  A
C561        H571   1.085       .  S
C562        C567   1.475   1_554  S
C562        C563   1.410       .  A
C563        C564   1.395       .  A
C563        S568   1.804       .  S
C564        C565   1.404       .  A
C564        H569   1.085       .  S
C565        C566   1.414       .  A
C566        S570   1.803       .  S
C567        C572   1.408   1_565  A
C567        C576   1.401       .  A
S568        H584   1.405       .  S
S570        H581   1.407       .  S
C572        C573   1.397       .  A
C572        S577   1.808   1_556  S
C573        C574   1.404   1_545  A
C573        H578   1.082       .  S
C574        C575   1.415       .  A
C575        C576   1.402       .  A
C575        S579   1.808       .  S
C576        H580   1.083       .  S
S577        H582   1.406   1_554  S
S579        H583   1.407       .  S
C585        C586   1.400       .  A
C585        C590   1.392       .  A
C585        H595   1.084       .  S
C586        C591   1.477       .  S
C586        C587   1.415       .  A
C587        C588   1.399       .  A
C587        S592   1.803       .  S
C588        C589   1.401       .  A
C588        H593   1.084       .  S
C589        C590   1.414       .  A
C590        S594   1.806       .  S
C591        C596   1.411       .  A
C591        C600   1.403   1_565  A
S592        H608   1.406       .  S
S594        H605   1.407       .  S
C596        C597   1.399       .  A
C596        S601   1.810       .  S
C597        C598   1.401   1_565  A
C597        H602   1.083       .  S
C598        C599   1.412       .  A
C599        C600   1.397       .  A
C599        S603   1.806       .  S
C600        H604   1.083       .  S
S601        H606   1.407       .  S
S603        H607   1.404       .  S
C609        C610   1.403       .  A
C609        C614   1.400       .  A
C609        H619   1.083       .  S
C610        C615   1.476   1_655  S
C610        C611   1.410       .  A
C611        C612   1.397       .  A
C611        S616   1.805       .  S
C612        C613   1.406       .  A
C612        H617   1.083       .  S
C613        C614   1.414       .  A
C614        S618   1.802       .  S
C615        C620   1.407       .  A
C615        C624   1.400       .  A
S616        H632   1.403       .  S
S618        H629   1.406       .  S
C620        C621   1.403       .  A
C620        S625   1.805       .  S
C621        C622   1.406       .  A
C621        H626   1.083       .  S
C622        C623   1.414       .  A
C623        C624   1.398       .  A
C623        S627   1.801       .  S
C624        H628   1.084       .  S
S625        H630   1.407       .  S
S627        H631   1.404       .  S
C633        C634   1.401       .  A
C633        C638   1.390       .  A
C633        H643   1.084       .  S
C634        C639   1.482       .  S
C634        C635   1.417       .  A
C635        C636   1.402       .  A
C635        S640   1.804       .  S
C636        C637   1.402       .  A
C636        H641   1.084       .  S
C637        C638   1.412       .  A
C638        S642   1.802       .  S
C639        C644   1.415       .  A
C639        C648   1.400       .  A
S640        H656   1.406       .  S
S642        H653   1.408       .  S
C644        C645   1.406       .  A
C644        S649   1.807       .  S
C645        C646   1.402       .  A
C645        H650   1.083       .  S
C646        C647   1.408       .  A
C647        C648   1.390       .  A
C647        S651   1.796       .  S
C648        H652   1.084       .  S
S649        H654   1.407       .  S
S651        H655   1.405       .  S
C657        C658   1.399       .  A
C657        C662   1.403       .  A
C657        H667   1.082       .  S
C658        C663   1.484       .  S
C658        C659   1.412       .  A
C659        C660   1.401       .  A
C659        S664   1.805       .  S
C660        C661   1.409       .  A
C660        H665   1.083       .  S
C661        C662   1.424       .  A
C662        S666   1.811       .  S
C663        C668   1.408       .  A
C663        C672   1.402       .  A
S664        H680   1.406       .  S
S666        H677   1.407       .  S
C668        C669   1.403       .  A
C668        S673   1.807       .  S
C669        C670   1.411       .  A
C669        H674   1.082       .  S
C670        C671   1.417       .  A
C671        C672   1.399       .  A
C671        S675   1.800       .  S
C672        H676   1.084       .  S
S673        H678   1.407       .  S
S675        H679   1.408       .  S
C681        C682   1.400       .  A
C681        C686   1.401   1_556  A
C681        H691   1.083       .  S
C682        C687   1.470       .  S
C682        C683   1.404   1_556  A
C683        C684   1.394       .  A
C683        S688   1.805       .  S
C684        C685   1.410       .  A
C684        H689   1.083       .  S
C685        C686   1.419       .  A
C686        S690   1.810       .  S
C687        C692   1.405       .  A
C687        C696   1.400       .  A
S688        H704   1.405   1_554  S
S690        H701   1.406   1_554  S
C692        C693   1.398       .  A
C692        S697   1.806       .  S
C693        C694   1.404       .  A
C693        H698   1.082       .  S
C694        C695   1.413       .  A
C695        C696   1.396       .  A
C695        S699   1.800       .  S
C696        H700   1.084       .  S
S697        H702   1.407       .  S
S699        H703   1.407       .  S
C705        C706   1.401       .  A
C705        C710   1.400       .  A
C705        H715   1.084       .  S
C706        C711   1.483       .  S
C706        C707   1.413       .  A
C707        C708   1.401       .  A
C707        S712   1.804       .  S
C708        C709   1.404       .  A
C708        H713   1.084       .  S
C709        C710   1.418       .  A
C710        S714   1.805       .  S
C711        C716   1.408       .  A
C711        C720   1.401       .  A
S712        H728   1.406       .  S
S714        H725   1.408       .  S
C716        C717   1.401       .  A
C716        S721   1.809       .  S
C717        C718   1.409       .  A
C717        H722   1.082       .  S
C718        C719   1.420       .  A
C719        C720   1.404       .  A
C719        S723   1.801       .  S
C720        H724   1.083       .  S
S721        H726   1.407       .  S
S723        H727   1.408       .  S
C729        C730   1.405       .  A
C729        C734   1.406       .  A
C729        H739   1.084       .  S
C730        C735   1.487       .  S
C730        C731   1.413       .  A
C731        C732   1.397       .  A
C731        S736   1.805       .  S
C732        C733   1.406       .  A
C732        H737   1.084       .  S
C733        C734   1.417       .  A
C734        S738   1.803       .  S
C735        C740   1.411       .  A
C735        C744   1.400       .  A
S736        H752   1.406       .  S
S738        H749   1.408       .  S
C740        C741   1.407       .  A
C740        S745   1.806       .  S
C741        C742   1.408       .  A
C741        H746   1.083       .  S
C742        C743   1.419       .  A
C743        C744   1.400       .  A
C743        S747   1.802       .  S
C744        H748   1.084       .  S
S745        H750   1.407       .  S
S747        H751   1.405       .  S
