geometry optimzed in LAMMPS
_audit_creation_date              2020-12-01 
_audit_creation_method            'lammps2cif' 
_symmetry_space_group_name_H-M    'P1' 
_symmetry_Int_Tables_number       1 
_symmetry_cell_setting            triclinic 
loop_ 
_symmetry_equiv_pos_as_xyz 
  x,y,z 
_cell_length_a                    25.52891637 
_cell_length_b                    44.96999807580815 
_cell_length_c                    56.05540805501312 
_cell_angle_alpha                 89.12371049578933 
_cell_angle_beta                  89.94826392121114 
_cell_angle_gamma                 90.0637840423669 
loop_ 
_atom_site_label 
_atom_site_type_symbol 
_atom_site_fract_x 
_atom_site_fract_y 
_atom_site_fract_z 
_atom_site_charge 
O1          O  0.86517359  0.08004113  0.47814380    -0.81000
C2          C  0.05407089  0.06087616  0.42752529     0.98400
O3          O  0.01223178  0.04621857  0.42466983    -0.70100
O4          O  0.98226709  0.02928365  0.46712903    -0.73700
Al5        Al  0.94693814  0.04806128  0.44212626     1.49000
C6          C  0.97407888  0.03256981  0.48908964     0.93600
O7          O  0.00061671  0.10837373  0.49379081    -0.79900
O8          O  0.93314286  0.13650955  0.43507408    -0.73500
Al9        Al  0.93492757  0.09360029  0.48301682     1.90100
O10         O  0.02270857  0.13237445  0.46119682    -0.72500
O11         O  0.96758444  0.09630190  0.40513187    -0.72400
O12         O  0.05253505  0.08728863  0.43483445    -0.78000
O13         O  0.90857603  0.06337759  0.41584708    -0.76200
O14         O  0.95758166  0.08414370  0.45387220    -1.12400
O15         O  0.88200158  0.04027067  0.45756338    -0.71600
C16         C  0.85279032  0.05439199  0.47139095     0.99200
C17         C  0.02745729  0.12805483  0.48336943     0.95600
Al18       Al  0.99121776  0.11087208  0.43564016     1.55600
O19         O  0.95403241  0.05607140  0.49723442    -0.76200
C20         C  0.92802033  0.08061704  0.40031332     0.99700
C21         C  0.90939061  0.14617369  0.45308065     0.94600
O22         O  0.91177566  0.13289810  0.47324962    -0.81500
O23         O  0.88509395  0.08226710  0.26966914    -0.81000
C24         C  0.70025944  0.06477749  0.32437020     0.98400
O25         O  0.74119132  0.04892260  0.32625558    -0.70100
O26         O  0.76593324  0.03334503  0.28320748    -0.73700
Al27       Al  0.80528279  0.05008978  0.30743800     1.49000
C28         C  0.77269313  0.03719737  0.26112387     0.93600
O29         O  0.75007732  0.11378153  0.25754511    -0.79900
O30         O  0.82723923  0.13719836  0.31464953    -0.73500
Al31       Al  0.81594640  0.09726446  0.26650048     1.90100
O32         O  0.73483606  0.13704743  0.29071459    -0.72500
O33         O  0.79131764  0.09671771  0.34496987    -0.72400
O34         O  0.70334438  0.09144778  0.31707734    -0.78000
O35         O  0.84760166  0.06340342  0.33309720    -0.76200
O36         O  0.79602357  0.08684646  0.29609043    -1.12400
O37         O  0.86821426  0.04168121  0.29028227    -0.71600
C38         C  0.89644625  0.05597293  0.27568937     0.99200
C39         C  0.72673279  0.13379666  0.26877096     0.95600
Al40       Al  0.76663382  0.11339765  0.31519615     1.55600
O41         O  0.79330895  0.06067804  0.25260263    -0.76200
C42         C  0.83031338  0.08023332  0.34903178     0.99700
C43         C  0.84916392  0.14744055  0.29609892     0.94600
O44         O  0.84263697  0.13569996  0.27582885    -0.81500
O45         O  0.61699352  0.38300425  0.02970085    -0.81000
C46         C  0.45671264  0.44828561  0.07618348     0.98400
O47         O  0.46745466  0.42119638  0.08007871    -0.70100
O48         O  0.46828653  0.38449613  0.04463351    -0.73700
Al49       Al  0.52031316  0.39508060  0.06717407     1.49000
C50         C  0.47549304  0.37625706  0.02354288     0.93600
O51         O  0.52340333  0.44158854  0.00405836    -0.79900
O52         O  0.63410835  0.46056610  0.04956632    -0.73500
Al53       Al  0.56919624  0.41258638  0.01818382     1.90100
O54         O  0.54305710  0.47742022  0.02887422    -0.72500
O55         O  0.58071802  0.44940984  0.08920287    -0.72400
O56         O  0.49000941  0.46529436  0.06661241    -0.78000
O57         O  0.56831055  0.40140312  0.09297220    -0.76200
O58         O  0.55025110  0.42241972  0.04790597    -1.12400
O59         O  0.56567818  0.36324104  0.05743835    -0.71600
C60         C  0.60533562  0.36180425  0.04388720     0.99200
C61         C  0.52412753  0.46885239  0.00946426     0.95600
Al62       Al  0.56094423  0.45965986  0.05787494     1.55600
O63         O  0.51686446  0.38314530  0.01267825    -0.76200
C64         C  0.58618450  0.42554321  0.10077789     0.99700
C65         C  0.64934816  0.45742181  0.02830025     0.94600
O66         O  0.62567337  0.43971895  0.01493680    -0.81500
O67         O  0.63937039  0.37758996  0.23198486    -0.81000
C68         C  0.79663902  0.43704184  0.17819697     0.98400
O69         O  0.78884753  0.40928938  0.17854375    -0.70100
O70         O  0.78839086  0.37664892  0.21677496    -0.73700
Al71       Al  0.73641406  0.38443194  0.19337763     1.49000
C72         C  0.78051445  0.36916299  0.23812511     0.93600
O73         O  0.73689935  0.43682836  0.25030098    -0.79900
O74         O  0.61968898  0.45045866  0.20613082    -0.73500
Al75       Al  0.68885007  0.40713391  0.24035441     1.90100
O76         O  0.71414753  0.47026545  0.22276555    -0.72500
O77         O  0.66714533  0.43383511  0.16678265    -0.72400
O78         O  0.76106609  0.45456080  0.18448242    -0.78000
O79         O  0.68988349  0.38698010  0.16692712    -0.76200
O80         O  0.70562503  0.41352912  0.20964040    -1.12400
O81         O  0.68990494  0.35436377  0.20603262    -0.71600
C82         C  0.64960770  0.35523296  0.21933214     0.99200
C83         C  0.73591734  0.46340008  0.24232699     0.95600
Al84       Al  0.69180049  0.44899278  0.19600161     1.55600
O85         O  0.73932203  0.37709809  0.24837162    -0.76200
C86         C  0.66594614  0.40853407  0.15748245     0.99700
C87         C  0.60700938  0.44985639  0.22787762     0.94600
O88         O  0.63388309  0.43494016  0.24241259    -0.81500
O89         O  0.36898924  0.09134524  0.76385603    -0.81000
C90         C  0.19447395  0.07211143  0.82399067     0.98400
O91         O  0.23432726  0.05539340  0.82363147    -0.70100
O92         O  0.24902147  0.04121171  0.77960655    -0.73700
Al93       Al  0.29410877  0.05658413  0.80221899     1.49000
C94         C  0.25552255  0.04408262  0.75752828     0.93600
O95         O  0.23071596  0.11896038  0.75510732    -0.79900
O96         O  0.31861555  0.14644787  0.80756036    -0.73500
Al97       Al  0.29880780  0.10422888  0.76164131     1.90100
O98         O  0.22042605  0.14312066  0.78848406    -0.72500
O99         O  0.29611824  0.10522017  0.84019031    -0.72400
O100        O  0.19849620  0.09912992  0.81801189    -0.78000
O101        O  0.34089953  0.06740632  0.82662299    -0.76200
O102        O  0.28458070  0.09406860  0.79194631    -1.12400
O103        O  0.35410046  0.04863540  0.78190714    -0.71600
C104        C  0.38126143  0.06466278  0.76777622     0.99200
C105        C  0.20889961  0.13918884  0.76679795     0.95600
Al106      Al  0.26038961  0.12111716  0.81203319     1.55600
O107        O  0.27694673  0.06696867  0.74849499    -0.76200
C108        C  0.33128115  0.08553570  0.84292670     0.99700
C109        C  0.33328620  0.15678347  0.78758624     0.94600
O110        O  0.32366254  0.14327341  0.76851103    -0.81500
O111        O  0.36350238  0.09444550  0.97583668    -0.81000
C112        C  0.54877124  0.07910686  0.92173050     0.98400
O113        O  0.50740195  0.06392892  0.91960770    -0.70100
O114        O  0.48430968  0.04519251  0.96282232    -0.73700
Al115      Al  0.44469631  0.06400588  0.93885699     1.49000
C116        C  0.47632882  0.04729465  0.98493694     0.93600
O117        O  0.49942958  0.12290544  0.99134004    -0.79900
O118        O  0.42635020  0.15408664  0.93566319    -0.73500
Al119      Al  0.43339747  0.10793538  0.98103098     1.90100
O120        O  0.51986621  0.14775521  0.95878718    -0.72500
O121        O  0.45403767  0.11613470  0.90328920    -0.72400
O122        O  0.54640080  0.10541785  0.92918010    -0.78000
O123        O  0.40237657  0.07905193  0.91344001    -0.76200
O124        O  0.45419209  0.10016018  0.95121270    -1.12400
O125        O  0.38227243  0.05433440  0.95602804    -0.71600
C126        C  0.35251574  0.06833460  0.96976816     0.99200
C127        C  0.52563063  0.14294600  0.98087047     0.95600
Al128      Al  0.48432626  0.12836212  0.93320890     1.55600
O129        O  0.45423699  0.06982766  0.99371194    -0.76200
C130        C  0.41562609  0.09931199  0.89878929     0.99700
C131        C  0.40469582  0.16229807  0.95463935     0.94600
O132        O  0.40913409  0.14745335  0.97387614    -0.81500
O133        O  0.13509367  0.38224085  0.72376189    -0.81000
C134        C  0.29972879  0.44436816  0.67830082     0.98400
O135        O  0.28956951  0.41722162  0.67469977    -0.70100
O136        O  0.28715407  0.38355956  0.71279698    -0.73700
Al137      Al  0.23643346  0.39122409  0.68855623     1.49000
C138        C  0.27711943  0.37573688  0.73395223     0.93600
O139        O  0.22793268  0.44056630  0.74793585    -0.79900
O140        O  0.11996621  0.45579371  0.69852586    -0.73500
Al141      Al  0.18244841  0.41120347  0.73480089     1.90100
O142        O  0.20737431  0.47501231  0.72109518    -0.72500
O143        O  0.17918698  0.44336898  0.66140851    -0.72400
O144        O  0.26517913  0.46143575  0.68611738    -0.78000
O145        O  0.18927210  0.39501065  0.66205692    -0.76200
O146        O  0.20429382  0.41933985  0.70514699    -1.12400
O147        O  0.19065890  0.35970535  0.69980484    -0.71600
C148        C  0.14790787  0.36018211  0.71138034     0.99200
C149        C  0.22648871  0.46753900  0.74100654     0.95600
Al150      Al  0.19397509  0.45563526  0.69261603     1.55600
O151        O  0.23317923  0.38137271  0.74293445    -0.76200
C152        C  0.17201615  0.41843079  0.65222875     0.99700
C153        C  0.10392223  0.45487303  0.71980183     0.94600
O154        O  0.12689025  0.43869169  0.73499121    -0.81500
O155        O  0.10070578  0.36870795  0.52877160    -0.81000
C156        C  0.94283929  0.42608430  0.58128658     0.98400
O157        O  0.95333571  0.39866299  0.58303879    -0.70100
O158        O  0.95215079  0.36670366  0.54516497    -0.73700
Al159      Al  0.00531260  0.37441842  0.56774178     1.49000
C160        C  0.95969074  0.35999873  0.52379607     0.93600
O161        O  0.00377922  0.42808420  0.50914525    -0.79900
O162        O  0.11855021  0.44143560  0.55450538    -0.73500
Al163      Al  0.05138325  0.39827979  0.52011419     1.90100
O164        O  0.02575852  0.46136575  0.53595059    -0.72500
O165        O  0.06963532  0.42488710  0.59332482    -0.72400
O166        O  0.97647573  0.44425793  0.57367709    -0.78000
O167        O  0.05455456  0.37703757  0.59315869    -0.76200
O168        O  0.03428033  0.40414020  0.55062577    -1.12400
O169        O  0.05064729  0.34450499  0.55481829    -0.71600
C170        C  0.09027945  0.34576518  0.54118253     0.99200
C171        C  0.00558139  0.45474374  0.51615845     0.95600
Al172      Al  0.04629544  0.43972394  0.56351962     1.55600
O173        O  0.00032580  0.36865131  0.51312289    -0.76200
C174        C  0.07629335  0.39929066  0.60218661     0.99700
C175        C  0.13191384  0.44132658  0.53290373     0.94600
O176        O  0.10650109  0.42612438  0.51829335    -0.81500
O177        O  0.13888015  0.00692729  0.01964712    -0.81000
C178        C  0.30687186  0.45547088  0.08010172     0.98400
O179        O  0.29816519  0.48312023  0.07962768    -0.70100
O180        O  0.29018889  0.00655287  0.03286848    -0.73700
Al181      Al  0.24347148  0.50704086  0.06572682     1.49000
C182        C  0.28110041  0.01433729  0.01168453     0.93600
O183        O  0.24151111  0.45121331  0.00938992    -0.79900
O184        O  0.12840696  0.43913438  0.05527992    -0.73500
Al185      Al  0.19548677  0.48213442  0.01907463     1.90100
O186        O  0.22144041  0.41914696  0.03815394    -0.72500
O187        O  0.17646050  0.45721147  0.09359884    -0.72400
O188        O  0.27105194  0.43736070  0.07511771    -0.78000
O189        O  0.19812065  0.50408668  0.09296049    -0.76200
O190        O  0.21309771  0.47706452  0.04991851    -1.12400
O191        O  0.19253067  0.03074616  0.04386093    -0.71600
C192        C  0.15031363  0.02937958  0.03194409     0.99200
C193        C  0.24060691  0.42495579  0.01789893     0.95600
Al194      Al  0.20073523  0.44168396  0.06448168     1.55600
O195        O  0.24730953  0.51019076  0.00988533    -0.76200
C196        C  0.17396765  0.48262194  0.10253724     0.99700
C197        C  0.11442568  0.43929882  0.03373252     0.94600
O198        O  0.13900162  0.45497910  0.01875506    -0.81500
O199        O  0.10918022  0.00492874  0.22006024    -0.81000
C200        C  0.94585566  0.44395118  0.17771178     0.98400
O201        O  0.95776703  0.47119295  0.17518553    -0.70100
O202        O  0.96165305  0.00630180  0.20604288    -0.73700
Al203      Al  0.01224478  0.49533063  0.18941558     1.49000
C204        C  0.96991052  0.01302661  0.22745974     0.93600
O205        O  0.00561733  0.44381780  0.25019583    -0.79900
O206        O  0.12062343  0.42752389  0.20526262    -0.73500
Al207      Al  0.05499234  0.47292089  0.23838353     1.90100
O208        O  0.02759040  0.40972812  0.22422780    -0.72500
O209        O  0.07108825  0.44142937  0.16560667    -0.72400
O210        O  0.97820431  0.42572036  0.18634276    -0.78000
O211        O  0.06197842  0.48962919  0.16379227    -0.76200
O212        O  0.03834227  0.46600820  0.20785782    -1.12400
O213        O  0.05970757  0.02565203  0.19207941    -0.71600
C214        C  0.09926033  0.02608858  0.20570488     0.99200
C215        C  0.00755990  0.41683664  0.24385750     0.95600
Al216      Al  0.04829962  0.42953548  0.19619195     1.55600
O217        O  0.00529887  0.50353966  0.24441785    -0.76200
C218        C  0.07985575  0.46586351  0.15534199     0.99700
C219        C  0.13371750  0.42834115  0.22692405     0.94600
O220        O  0.10885198  0.44437649  0.24114299    -0.81500
O221        O  0.88501980  0.30591212  0.26735630    -0.81000
C222        C  0.04803297  0.30570214  0.33127392     0.98400
O223        O  0.01199896  0.32342799  0.32534484    -0.70100
O224        O  0.96232822  0.34283800  0.28797871    -0.73700
Al225      Al  0.94238764  0.31798264  0.31398840     1.49000
C226        C  0.98348936  0.33835178  0.26802016     0.93600
O227        O  0.99676340  0.25316000  0.25941608    -0.79900
O228        O  0.94531795  0.22427999  0.30131906    -0.73500
Al229      Al  0.94289340  0.28008246  0.26814698     1.90100
O230        O  0.04275663  0.24806958  0.29177300    -0.72500
O231        O  0.94180609  0.25334044  0.34106524    -0.72400
O232        O  0.04061415  0.27794929  0.33070504    -0.78000
O233        O  0.91850168  0.29991447  0.34276454    -0.76200
O234        O  0.95813185  0.28384351  0.29921157    -1.12400
O235        O  0.87018876  0.31891353  0.30398306    -0.71600
C236        C  0.85782096  0.31965431  0.28219780     0.99200
C237        C  0.03677252  0.24365557  0.26989514     0.95600
Al238      Al  0.98959775  0.25372406  0.31494493     1.55600
O239        O  0.98755855  0.31242942  0.25960624    -0.76200
C240        C  0.91686206  0.27374984  0.35103319     0.99700
C241        C  0.90760822  0.22463255  0.28660857     0.94600
O242        O  0.89692305  0.24760106  0.27420543    -0.81500
O243        O  0.87388117  0.28931618  0.48564438    -0.81000
C244        C  0.69609828  0.29859772  0.42670606     0.98400
O245        O  0.73573418  0.31524187  0.42492827    -0.70100
O246        O  0.75101847  0.33448669  0.46766129    -0.73700
Al247      Al  0.79547827  0.31734434  0.44561449     1.49000
C248        C  0.75748825  0.33314686  0.48982985     0.93600
O249        O  0.73858010  0.25744185  0.49774437    -0.79900
O250        O  0.82450283  0.22776380  0.44559392    -0.73500
Al251      Al  0.80509594  0.27395503  0.48914591     1.90100
O252        O  0.72706807  0.23105575  0.46566422    -0.72500
O253        O  0.79800249  0.26540008  0.41078472    -0.72400
O254        O  0.70084680  0.27216222  0.43420934    -0.78000
O255        O  0.84164048  0.30472161  0.42216277    -0.76200
O256        O  0.78853476  0.28085004  0.45851873    -1.12400
O257        O  0.85527767  0.32858121  0.46362630    -0.71600
C258        C  0.88457655  0.31520291  0.47824769     0.99200
C259        C  0.71615578  0.23642834  0.48720055     0.95600
Al260      Al  0.76456593  0.25156460  0.44044470     1.55600
O261        O  0.78003797  0.31139145  0.49994893    -0.76200
C262        C  0.83239770  0.28533076  0.40692776     0.99700
C263        C  0.84268432  0.22013307  0.46572542     0.94600
O264        O  0.83371749  0.23525041  0.48408915    -0.81500
O265        O  0.58404211  0.01774987  0.72556836    -0.81000
C266        C  0.44907844  0.45304981  0.67943340     0.98400
O267        O  0.45317750  0.47840568  0.68873521    -0.70100
O268        O  0.47374472  0.01902404  0.71281895    -0.73700
Al269      Al  0.51710712  0.49958449  0.69275509     1.49000
C270        C  0.46744463  0.00946456  0.73400554     0.93600
O271        O  0.54264280  0.43652248  0.75003146    -0.79900
O272        O  0.61512168  0.42201301  0.71178071    -0.73500
Al273      Al  0.56646586  0.47445363  0.73923324     1.90100
O274        O  0.51163575  0.41472160  0.71798676    -0.72500
O275        O  0.59571524  0.45080219  0.67059776    -0.72400
O276        O  0.48950634  0.43735142  0.67606779    -0.78000
O277        O  0.54390120  0.48824175  0.66181697    -0.76200
O278        O  0.54575868  0.46944334  0.70918572    -1.12400
O279        O  0.56599902  0.02601733  0.68765590    -0.71600
C280        C  0.58869539  0.03325619  0.70657328     0.99200
C281        C  0.51866598  0.41541952  0.74020279     0.95600
Al282      Al  0.55275506  0.43439107  0.69508965     1.55600
O283        O  0.50109789  0.48895110  0.74941291    -0.76200
C284        C  0.58186250  0.47149821  0.65648778     0.99700
C285        C  0.64420438  0.43357248  0.72728953     0.94600
O286        O  0.63506061  0.45947025  0.73448477    -0.81500
O287        O  0.63467148  0.99429573  0.51815254    -0.81000
C288        C  0.79431297  0.43267573  0.57715114     0.98400
O289        O  0.78399568  0.45993105  0.57983126    -0.70100
O290        O  0.77884979  0.00250948  0.53869803    -0.73700
Al291      Al  0.73174901  0.48582408  0.56577664     1.49000
C292        C  0.77433272  0.00830774  0.51671822     0.93600
O293        O  0.73003033  0.43753379  0.50466697    -0.79900
O294        O  0.61733393  0.42057169  0.55089219    -0.73500
Al295      Al  0.68378760  0.46691028  0.51739629     1.90100
O296        O  0.70814583  0.40278431  0.53095939    -0.72500
O297        O  0.67123470  0.43217819  0.59022483    -0.72400
O298        O  0.76115886  0.41552981  0.56811334    -0.78000
O299        O  0.68324674  0.48024646  0.59191631    -0.76200
O300        O  0.70204169  0.45803347  0.54761779    -1.12400
O301        O  0.67823247  0.01834470  0.54564044    -0.71600
C302        C  0.64191558  0.01713050  0.53057440     0.99200
C303        C  0.72764963  0.41043398  0.51120088     0.95600
Al304      Al  0.69055276  0.42122783  0.55919250     1.55600
O305        O  0.73575071  0.49667837  0.51088066    -0.76200
C306        C  0.66600986  0.45625858  0.60092425     0.99700
C307        C  0.60305690  0.42254320  0.52933546     0.94600
O308        O  0.62748607  0.43949166  0.51515541    -0.81500
O309        O  0.35511423  0.29870530  0.77669046    -0.81000
C310        C  0.54243247  0.31424252  0.82911681     0.98400
O311        O  0.50364517  0.33158161  0.82908806    -0.70100
O312        O  0.48761728  0.34222135  0.78415451    -0.73700
Al313      Al  0.44276398  0.33159818  0.80885583     1.49000
C314        C  0.47513713  0.33990588  0.76257293     0.93600
O315        O  0.48817166  0.26570006  0.76330524    -0.79900
O316        O  0.40955403  0.24355363  0.82076239    -0.73500
Al317      Al  0.42340975  0.28280252  0.77184888     1.90100
O318        O  0.50465768  0.24300756  0.79748176    -0.72500
O319        O  0.44038239  0.28543732  0.84936593    -0.72400
O320        O  0.53618630  0.28727181  0.82403915    -0.78000
O321        O  0.39753999  0.32399768  0.83456473    -0.76200
O322        O  0.44542266  0.29358672  0.80071721    -1.12400
O323        O  0.38222040  0.34164990  0.78992529    -0.71600
C324        C  0.34855501  0.32626626  0.77915442     0.99200
C325        C  0.51222656  0.24607483  0.77521362     0.95600
Al326      Al  0.47076019  0.26699713  0.82135111     1.55600
O327        O  0.44650641  0.31876567  0.75558544    -0.76200
C328        C  0.40636243  0.30588404  0.85140971     0.99700
C329        C  0.39016098  0.23258556  0.80227032     0.94600
O330        O  0.39681179  0.24480288  0.78201853    -0.81500
O331        O  0.36713012  0.31517438  0.99470922    -0.81000
C332        C  0.20268823  0.32199450  0.93195150     0.98400
O333        O  0.23857988  0.33888983  0.93905635    -0.70100
O334        O  0.29045368  0.35339034  0.97641676    -0.73700
Al335      Al  0.30854009  0.33191051  0.94909433     1.49000
C336        C  0.26871856  0.34705535  0.99606210     0.93600
O337        O  0.25520002  0.26096609  0.00057270    -0.79900
O338        O  0.30472273  0.23736892  0.95766610    -0.73500
Al339      Al  0.30911445  0.28915143  0.99310518     1.90100
O340        O  0.20804298  0.26123683  0.96831740    -0.72500
O341        O  0.30889198  0.27040093  0.91967279    -0.72400
O342        O  0.21033161  0.29433676  0.93056334    -0.78000
O343        O  0.33002140  0.31745671  0.91894444    -0.76200
O344        O  0.29304859  0.29642022  0.96234953    -1.12400
O345        O  0.38109987  0.33099512  0.95829653    -0.71600
C346        C  0.39422050  0.32987938  0.97999662     0.99200
C347        C  0.21435739  0.25366197  0.98972146     0.95600
Al348      Al  0.26098718  0.26836744  0.94544235     1.55600
O349        O  0.26440428  0.32037899  0.00350942    -0.76200
C350        C  0.33210365  0.29200492  0.90997506     0.99700
C351        C  0.34383602  0.23626813  0.97156257     0.94600
O352        O  0.35517564  0.25766446  0.98506509    -0.81500
O353        O  0.63793436  0.25968109  0.02951281    -0.81000
C354        C  0.79710951  0.19218921  0.07588497     0.98400
O355        O  0.78611938  0.21901949  0.08029930    -0.70100
O356        O  0.78610613  0.25821432  0.04534429    -0.73700
Al357      Al  0.73340166  0.24595572  0.06745623     1.49000
C358        C  0.77922204  0.26769795  0.02434471     0.93600
O359        O  0.73181528  0.20192982  0.00372575    -0.79900
O360        O  0.62017248  0.18162806  0.04959158    -0.73500
Al361      Al  0.68594099  0.23058080  0.01806061     1.90100
O362        O  0.71046560  0.16539108  0.02839654    -0.72500
O363        O  0.67428175  0.19027146  0.08905544    -0.72400
O364        O  0.76421046  0.17576513  0.06586817    -0.78000
O365        O  0.68442047  0.23821856  0.09293461    -0.76200
O366        O  0.70427814  0.21950769  0.04780457    -1.12400
O367        O  0.68806610  0.27816403  0.05774580    -0.71600
C368        C  0.64897017  0.28021326  0.04390148     0.99200
C369        C  0.72940245  0.17438410  0.00889121     0.95600
Al370      Al  0.69340734  0.18181894  0.05755120     1.55600
O371        O  0.73871790  0.26048707  0.01302686    -0.76200
C372        C  0.66728703  0.21355003  0.10061370     0.99700
C373        C  0.60528238  0.18526740  0.02826233     0.94600
O374        O  0.62916475  0.20340311  0.01478801    -0.81500
O375        O  0.61011734  0.25255619  0.23099867    -0.81000
C376        C  0.45333449  0.19566001  0.17694511     0.98400
O377        O  0.46230937  0.22329273  0.17667443    -0.70100
O378        O  0.46017828  0.25182389  0.21628990    -0.73700
Al379      Al  0.51304574  0.24733758  0.19292868     1.49000
C380        C  0.46767352  0.25788722  0.23780403     0.93600
O381        O  0.51605471  0.19087025  0.24916244    -0.79900
O382        O  0.63056507  0.18133902  0.20305459    -0.73500
Al383      Al  0.56210619  0.22186953  0.23913209     1.90100
O384        O  0.53850237  0.15942825  0.22093341    -0.72500
O385        O  0.58001573  0.20020607  0.16470680    -0.72400
O386        O  0.48791171  0.17766669  0.18385705    -0.78000
O387        O  0.56133641  0.24755990  0.16705594    -0.76200
O388        O  0.54442116  0.21731060  0.20851394    -1.12400
O389        O  0.55705388  0.27733527  0.20672216    -0.71600
C390        C  0.59828256  0.27586021  0.21931091     0.99200
C391        C  0.51852891  0.16472539  0.24106374     0.95600
Al392      Al  0.55788480  0.18283773  0.19412750     1.55600
O393        O  0.50976405  0.25046059  0.24781637    -0.76200
C394        C  0.58363450  0.22647286  0.15664628     0.99700
C395        C  0.64406583  0.18043012  0.22467974     0.94600
O396        O  0.61828024  0.19470266  0.23974702    -0.81500
O397        O  0.37765562  0.03549606  0.48635926    -0.81000
C398        C  0.20124207  0.04720603  0.42694469     0.98400
O399        O  0.24217463  0.06279889  0.42478307    -0.70100
O400        O  0.26481383  0.08486763  0.46640573    -0.73700
Al401      Al  0.30418524  0.06327705  0.44414373     1.49000
C402        C  0.26738598  0.08305037  0.48880796     0.93600
O403        O  0.24042743  0.00710691  0.49860319    -0.79900
O404        O  0.32121190  0.47519694  0.44857530    -0.73500
Al405      Al  0.30799835  0.02185136  0.48960479     1.90100
O406        O  0.22483771  0.48103904  0.46704764    -0.72500
O407        O  0.29781622  0.00862548  0.41164741    -0.72400
O408        O  0.20369415  0.02087391  0.43488209    -0.78000
O409        O  0.34690594  0.04685141  0.42004044    -0.76200
O410        O  0.29244791  0.02791296  0.45863968    -1.12400
O411        O  0.36640000  0.07230350  0.46078526    -0.71600
C412        C  0.39225864  0.05978467  0.47709161     0.99200
C413        C  0.21388173  0.48661605  0.48830649     0.95600
Al414      Al  0.26477784  0.99849622  0.44164226     1.55600
O415        O  0.28515950  0.06016519  0.49931151    -0.76200
C416        C  0.33514244  0.02593543  0.40639143     0.99700
C417        C  0.33938769  0.46807492  0.46884542     0.94600
O418        O  0.33158450  0.48391011  0.48695781    -0.81500
O419        O  0.37463066  0.04371528  0.26803555    -0.81000
C420        C  0.55164546  0.05462321  0.32767886     0.98400
O421        O  0.51220629  0.07157482  0.32875162    -0.70100
O422        O  0.49446948  0.08932705  0.28544867    -0.73700
Al423      Al  0.45095964  0.07270014  0.30858148     1.49000
C424        C  0.49048851  0.08665619  0.26327670     0.93600
O425        O  0.50988401  0.01038066  0.26074133    -0.79900
O426        O  0.41455532  0.48567856  0.31763021    -0.73500
Al427      Al  0.44350727  0.02749038  0.26710182     1.90100
O428        O  0.50983341  0.48630673  0.29480163    -0.72500
O429        O  0.45056108  0.02269162  0.34632238    -0.72400
O430        O  0.54626886  0.02776543  0.32195833    -0.78000
O431        O  0.40533033  0.06092207  0.33341074    -0.76200
O432        O  0.45839617  0.03588579  0.29754352    -1.12400
O433        O  0.39021039  0.08257482  0.29013742    -0.71600
C434        C  0.36266557  0.06942838  0.27490910     0.99200
C435        C  0.51893799  0.49057075  0.27283396     0.95600
Al436      Al  0.48198141  0.00741671  0.31735870     1.55600
O437        O  0.46986198  0.06404459  0.25411275    -0.76200
C438        C  0.41549201  0.04210696  0.34950889     0.99700
C439        C  0.39453861  0.47579572  0.29883118     0.94600
O440        O  0.40254882  0.48836113  0.27876516    -0.81500
O441        O  0.10014106  0.25946710  0.72571662    -0.81000
C442        C  0.93570786  0.20466493  0.67478345     0.98400
O443        O  0.94509362  0.23227422  0.67488506    -0.70100
O444        O  0.95322137  0.26655960  0.71134102    -0.73700
Al445      Al  0.00213064  0.25539000  0.68742276     1.49000
C446        C  0.96162734  0.27148013  0.73297167     0.93600
O447        O  0.00054637  0.20095863  0.74583173    -0.79900
O448        O  0.11341877  0.18570004  0.70049146    -0.73500
Al449      Al  0.04946185  0.23037307  0.73473789     1.90100
O450        O  0.01880635  0.16848194  0.71784342    -0.72500
O451        O  0.06647792  0.20374285  0.66154437    -0.72400
O452        O  0.97106347  0.18623562  0.68006223    -0.78000
O453        O  0.04592713  0.25072844  0.65988577    -0.76200
O454        O  0.03086591  0.22514506  0.70417545    -1.12400
O455        O  0.05332570  0.28332571  0.69815121    -0.71600
C456        C  0.09264111  0.28168532  0.71196940     0.99200
C457        C  0.00044069  0.17459185  0.73802394     0.95600
Al458      Al  0.04125038  0.18947952  0.69092651     1.55600
O459        O  0.00108848  0.26055333  0.74296999    -0.76200
C460        C  0.06901255  0.22863260  0.65126473     0.99700
C461        C  0.12700841  0.18564627  0.72210453     0.94600
O462        O  0.10293791  0.20164471  0.73652898    -0.81500
O463        O  0.13331872  0.24406967  0.52548111    -0.81000
C464        C  0.29827224  0.19350873  0.57917547     0.98400
O465        O  0.27629980  0.21787738  0.58345884    -0.70100
O466        O  0.28083350  0.24946365  0.54409397    -0.73700
Al467      Al  0.22537792  0.23951543  0.56532738     1.49000
C468        C  0.27544850  0.25573981  0.52224723     0.93600
O469        O  0.23527677  0.18752659  0.50500645    -0.79900
O470        O  0.12746164  0.16619258  0.55158584    -0.73500
Al471      Al  0.18584275  0.21583993  0.51704955     1.90100
O472        O  0.22151924  0.15310059  0.53251394    -0.72500
O473        O  0.17679803  0.18469938  0.59100989    -0.72400
O474        O  0.27313417  0.17314239  0.56894270    -0.78000
O475        O  0.17167944  0.23334980  0.58855859    -0.76200
O476        O  0.20357878  0.20918332  0.54749953    -1.12400
O477        O  0.18096310  0.26843862  0.55121723    -0.71600
C478        C  0.14172713  0.26689766  0.53771882     0.99200
C479        C  0.23715778  0.16062112  0.51200208     0.95600
Al480      Al  0.20023810  0.17253131  0.56021193     1.55600
O481        O  0.23620601  0.24660927  0.51081300    -0.76200
C482        C  0.16021209  0.20910940  0.59889724     0.99700
C483        C  0.11108705  0.16881291  0.53028277     0.94600
O484        O  0.13283316  0.18685745  0.51605005    -0.81500
O485        O  0.87957447  0.06405469  0.76197972    -0.81000
C486        C  0.04569178  0.06414760  0.82352499     0.98400
O487        O  0.01113351  0.08210961  0.81645208    -0.70100
O488        O  0.95731961  0.10061301  0.78046612    -0.73700
Al489      Al  0.94074377  0.07674510  0.80713777     1.49000
C490        C  0.97733917  0.09585119  0.76036669     0.93600
O491        O  0.98983116  0.01058399  0.75323453    -0.79900
O492        O  0.92972888  0.48592691  0.80839699    -0.73500
Al493      Al  0.93690720  0.03798046  0.76197495     1.90100
O494        O  0.02297716  0.49557378  0.78633939    -0.72500
O495        O  0.93687985  0.01246012  0.83442306    -0.72400
O496        O  0.03654267  0.03654360  0.82448192    -0.78000
O497        O  0.92095166  0.05998968  0.83674084    -0.76200
O498        O  0.95432647  0.04228222  0.79270496    -1.12400
O499        O  0.86779781  0.07708921  0.79891517    -0.71600
C500        C  0.85373146  0.07776217  0.77735276     0.99200
C501        C  0.02802132  0.50126785  0.76439176     0.95600
Al502      Al  0.98552901  0.01235783  0.80853296     1.55600
O503        O  0.98155255  0.06981331  0.75225393    -0.76200
C504        C  0.91573925  0.03392736  0.84480113     0.99700
C505        C  0.90792125  0.47885491  0.78912531     0.94600
O506        O  0.91083174  0.49541574  0.77087857    -0.81500
O507        O  0.87375458  0.05358148  0.97988676    -0.81000
C508        C  0.69737506  0.06610890  0.92019407     0.98400
O509        O  0.73759424  0.08236470  0.91886987    -0.70100
O510        O  0.75441649  0.10086183  0.96176772    -0.73700
Al511      Al  0.79771644  0.08303748  0.93940019     1.49000
C512        C  0.75884701  0.09828350  0.98398879     0.93600
O513        O  0.73801683  0.02210095  0.99003622    -0.79900
O514        O  0.83585341  0.49902900  0.93711179    -0.73500
Al515      Al  0.80462322  0.03848501  0.98233592     1.90100
O516        O  0.74027611  0.49739575  0.95929982    -0.72500
O517        O  0.79948265  0.03110303  0.90403073    -0.72400
O518        O  0.70146267  0.03920998  0.92664727    -0.78000
O519        O  0.84315302  0.07019812  0.91577501    -0.76200
O520        O  0.78912357  0.04623877  0.95171581    -1.12400
O521        O  0.85819125  0.09284991  0.95740536    -0.71600
C522        C  0.88620081  0.07914995  0.97234417     0.99200
C523        C  0.73115521  0.50080745  0.98126674     0.95600
Al524      Al  0.76444054  0.01749810  0.93301849     1.55600
O525        O  0.77957293  0.07566987  0.99369754    -0.76200
C526        C  0.83496848  0.05044159  0.90073612     0.99700
C527        C  0.85578337  0.48926092  0.95614164     0.94600
O528        O  0.84756981  0.50172162  0.97597137    -0.81500
O529        O  0.87317622  0.34063621  0.98960758    -0.81000
C530        C  0.05296318  0.33150534  0.93014422     0.98400
O531        O  0.01299561  0.31493612  0.92897812    -0.70100
O532        O  0.98977179  0.29411210  0.97126106    -0.73700
Al533      Al  0.94987356  0.31408610  0.94823518     1.49000
C534        C  0.98575396  0.29579113  0.99355012     0.93600
O535        O  0.00859791  0.37259943  0.00090007    -0.79900
O536        O  0.92864067  0.40486135  0.94865502    -0.73500
Al537      Al  0.94234523  0.35607356  0.99222765     1.90100
O538        O  0.02441398  0.39794463  0.96811544    -0.72500
O539        O  0.95253296  0.36857974  0.91389325    -0.72400
O540        O  0.04837757  0.35788746  0.93705627    -0.78000
O541        O  0.90668635  0.32913995  0.92349524    -0.76200
O542        O  0.95921725  0.34991208  0.96145842    -1.12400
O543        O  0.88719583  0.30405334  0.96506367    -0.71600
C544        C  0.85986719  0.31608783  0.98089869     0.99200
C545        C  0.03297353  0.39293211  0.98988278     0.95600
Al546      Al  0.98612026  0.37949234  0.94342813     1.55600
O547        O  0.96705169  0.31844460  0.00344004    -0.76200
C548        C  0.91628112  0.35038911  0.90933146     0.99700
C549        C  0.90913849  0.41165217  0.96856569     0.94600
O550        O  0.91419733  0.39491504  0.98670173    -0.81500
O551        O  0.87771240  0.33735532  0.77739796    -0.81000
C552        C  0.69215766  0.32298506  0.83140860     0.98400
O553        O  0.73168016  0.30617583  0.83334239    -0.70100
O554        O  0.75235189  0.29190026  0.78976188    -0.67300
Al555      Al  0.79448018  0.30595223  0.81402967     1.49000
C556        C  0.76028509  0.29565689  0.76780062     0.93600
O557        O  0.74529389  0.37166480  0.76536416    -0.79900
O558        O  0.82425220  0.39368039  0.82205946    -0.73500
Al559      Al  0.80983555  0.35385589  0.77404636     1.90100
O560        O  0.73034508  0.39527939  0.79842516    -0.72500
O561        O  0.79114217  0.35331579  0.85237144    -0.72400
O562        O  0.69796455  0.34997269  0.82545161    -0.78000
O563        O  0.83833895  0.31600512  0.83969544    -0.76200
O564        O  0.78939148  0.34355733  0.80356803    -1.12400
O565        O  0.85621707  0.29615959  0.79630898    -0.71600
C566        C  0.88653852  0.31048987  0.78260715     0.99200
C567        C  0.72307286  0.39236063  0.77625932     0.95600
Al568      Al  0.76289266  0.37068539  0.82303538     1.55600
O569        O  0.78455420  0.31812985  0.75961374    -0.76200
C570        C  0.82719691  0.33429878  0.85565217     0.99700
C571        C  0.84584385  0.40367375  0.80341969     0.94600
O572        O  0.83894424  0.39157603  0.78334492    -0.81500
O573        O  0.10468209  0.13069686  0.02432086    -0.81000
C574        C  0.94634312  0.18452126  0.07880468     0.98400
O575        O  0.95583460  0.15689096  0.07905982    -0.70100
O576        O  0.95614843  0.12682828  0.04033966    -0.73700
Al577      Al  0.00854178  0.13341581  0.06334573     1.49000
C578        C  0.96404751  0.12096625  0.01887318     0.93600
O579        O  0.00671685  0.19057567  0.00722020    -0.79900
O580        O  0.12331127  0.20000077  0.05289634    -0.73500
Al581      Al  0.05484565  0.16028440  0.01675562     1.90100
O582        O  0.03057033  0.22193997  0.03523641    -0.72500
O583        O  0.07413065  0.18160705  0.09127729    -0.72400
O584        O  0.98096283  0.20288690  0.07244937    -0.78000
O585        O  0.05641475  0.13423349  0.08921443    -0.76200
O586        O  0.03791655  0.16405039  0.04755903    -1.12400
O587        O  0.05522542  0.10471163  0.04960513    -0.71600
C588        C  0.09532068  0.10724970  0.03627931     0.99200
C589        C  0.00985242  0.21677258  0.01522442     0.95600
Al590      Al  0.05086179  0.19848762  0.06198504     1.55600
O591        O  0.00437908  0.13059250  0.00847647    -0.76200
C592        C  0.07898696  0.15543424  0.09925422     0.99700
C593        C  0.13620180  0.20187034  0.03124514     0.94600
O594        O  0.10976674  0.18855197  0.01583034    -0.81500
O595        O  0.14370701  0.12545153  0.22423822    -0.81000
C596        C  0.30411672  0.18903512  0.17595299     0.98400
O597        O  0.29283015  0.16200552  0.17241744    -0.70100
O598        O  0.29040198  0.12298517  0.20743150    -0.73700
Al599      Al  0.23838296  0.13625364  0.18521448     1.49000
C600        C  0.28383578  0.11495703  0.22883114     0.93600
O601        O  0.24106910  0.18265969  0.24749808    -0.79900
O602        O  0.12740040  0.20165436  0.20222801    -0.73500
Al603      Al  0.19337114  0.15406125  0.23454573     1.90100
O604        O  0.21861187  0.21848578  0.22236747    -0.72500
O605        O  0.18012349  0.19204259  0.16275776    -0.72400
O606        O  0.27106189  0.20633516  0.18488639    -0.78000
O607        O  0.19002346  0.14411647  0.15953860    -0.76200
O608        O  0.21088827  0.16370647  0.20439263    -1.12400
O609        O  0.19043911  0.10578333  0.19525282    -0.71600
C610        C  0.15174849  0.10500593  0.20942366     0.99200
C611        C  0.23839678  0.21003113  0.24180457     0.95600
Al612      Al  0.20041546  0.20110258  0.19380762     1.55600
O613        O  0.24446818  0.12377276  0.24013497    -0.76200
C614        C  0.17245928  0.16853875  0.15169679     0.99700
C615        C  0.11331348  0.19882519  0.22373991     0.94600
O616        O  0.13803552  0.18171736  0.23762446    -0.81500
O617        O  0.36114240  0.31840184  0.26739318    -0.81000
C618        C  0.19762650  0.31383753  0.33088574     0.98400
O619        O  0.23212782  0.29647453  0.32319411    -0.70100
O620        O  0.28415935  0.28040108  0.28631393    -0.73700
Al621      Al  0.30224205  0.30265458  0.31309055     1.49000
C622        C  0.26233393  0.28658640  0.26676372     0.93600
O623        O  0.24937404  0.37204061  0.26112199    -0.79900
O624        O  0.29981476  0.39774398  0.30259477    -0.73500
Al625      Al  0.30328991  0.34442093  0.26865463     1.90100
O626        O  0.20269734  0.37349906  0.29360138    -0.72500
O627        O  0.30735828  0.36525144  0.34126976    -0.72400
O628        O  0.20693084  0.34137596  0.33237238    -0.78000
O629        O  0.32374988  0.31761288  0.34263098    -0.76200
O630        O  0.28770436  0.33807235  0.29946060    -1.12400
O631        O  0.37488766  0.30289380  0.30390357    -0.71600
C632        C  0.38803392  0.30376290  0.28219472     0.99200
C633        C  0.20879160  0.37993374  0.27188261     0.95600
Al634      Al  0.25703781  0.36686550  0.31616201     1.55600
O635        O  0.25814442  0.31313514  0.25912501    -0.76200
C636        C  0.32944078  0.34320240  0.35093514     0.99700
C637        C  0.33806405  0.39849957  0.28815693     0.94600
O638        O  0.34965902  0.37622826  0.27565658    -0.81500
O639        O  0.36324347  0.32789193  0.48143369    -0.81000
C640        C  0.54797272  0.30946473  0.42799544     0.98400
O641        O  0.50743732  0.29343783  0.42718175    -0.70100
O642        O  0.48707390  0.27919747  0.47129731    -0.73700
Al643      Al  0.44570169  0.29443896  0.44684787     1.49000
C644        C  0.47582466  0.28177998  0.49299775     0.93600
O645        O  0.49873689  0.35775431  0.49501513    -0.79900
O646        O  0.42293255  0.38320597  0.43785738    -0.73500
Al647      Al  0.43269209  0.34196673  0.48592506     1.90100
O648        O  0.51687252  0.38081777  0.46126390    -0.72500
O649        O  0.45082390  0.34284171  0.40800411    -0.72400
O650        O  0.54464507  0.33634494  0.43389576    -0.78000
O651        O  0.40246239  0.30588481  0.42158011    -0.76200
O652        O  0.45344637  0.33175014  0.45667565    -1.12400
O653        O  0.38364344  0.28582922  0.46459919    -0.71600
C654        C  0.35273586  0.30124905  0.47674195     0.99200
C655        C  0.52351864  0.37753796  0.48352450     0.95600
Al656      Al  0.48175930  0.35853794  0.43684087     1.55600
O657        O  0.45307879  0.30471919  0.50077503    -0.76200
C658        C  0.41350280  0.32453318  0.40548812     0.99700
C659        C  0.40231930  0.39345608  0.45631940     0.94600
O660        O  0.40810195  0.38087394  0.47651588    -0.81500
O661        O  0.63361146  0.13200206  0.73236000    -0.81000
C662        C  0.78574209  0.19708548  0.67855903     0.98400
O663        O  0.77636595  0.16961723  0.67648718    -0.70100
O664        O  0.77887964  0.13446110  0.71342392    -0.73700
Al665      Al  0.72500234  0.14357434  0.69127895     1.49000
C666        C  0.77386577  0.12718082  0.73501317     0.93600
O667        O  0.72668915  0.19328328  0.75112184    -0.79900
O668        O  0.60957100  0.20770607  0.70748804    -0.73500
Al669      Al  0.68068484  0.16305576  0.74030481     1.90100
O670        O  0.70204722  0.22774756  0.72511994    -0.72500
O671        O  0.65848289  0.19526118  0.66727191    -0.72400
O672        O  0.75149252  0.21411219  0.68692441    -0.78000
O673        O  0.67558327  0.14775741  0.66564841    -0.76200
O674        O  0.69552952  0.17136237  0.70950611    -1.12400
O675        O  0.68071705  0.11237798  0.70349724    -0.71600
C676        C  0.64389476  0.11062326  0.71869594     0.99200
C677        C  0.72409419  0.22020766  0.74435352     0.95600
Al678      Al  0.68169324  0.20776720  0.69753627     1.55600
O679        O  0.73412783  0.13478678  0.74646438    -0.76200
C680        C  0.65431152  0.17076537  0.65698493     0.99700
C681        C  0.59665774  0.20519757  0.72918465     0.94600
O682        O  0.62340474  0.18924029  0.74311200    -0.81500
O683        O  0.60397810  0.12039238  0.52405352    -0.81000
C684        C  0.43923645  0.16320621  0.58055731     0.98400
O685        O  0.46156100  0.13859485  0.58417336    -0.70100
O686        O  0.45951441  0.11001382  0.54436267    -0.73700
Al687      Al  0.51418486  0.11942579  0.56565094     1.49000
C688        C  0.46506065  0.10549512  0.52242980     0.93600
O689        O  0.49881483  0.17717584  0.50814050    -0.79900
O690        O  0.60979499  0.19486029  0.55396155    -0.73500
Al691      Al  0.55033987  0.14867768  0.51791225     1.90100
O692        O  0.51477501  0.20908175  0.53649061    -0.72500
O693        O  0.56176102  0.17246871  0.59318592    -0.72400
O694        O  0.46470874  0.18489267  0.57186529    -0.78000
O695        O  0.56704597  0.12420341  0.58940487    -0.76200
O696        O  0.53437525  0.15173755  0.54887304    -1.12400
O697        O  0.56025222  0.09299861  0.55014387    -0.71600
C698        C  0.59657066  0.09610085  0.53508179     0.99200
C699        C  0.49757970  0.20333974  0.51610389     0.95600
Al700      Al  0.53729270  0.18711119  0.56299105     1.55600
O701        O  0.50174299  0.11768775  0.51084894    -0.76200
C702        C  0.57806163  0.14748702  0.60059494     0.99700
C703        C  0.62527448  0.19472963  0.53238362     0.94600
O704        O  0.60239562  0.17857499  0.51748306    -0.81500
C705        C  0.62354739  0.17029316  0.63459396    -0.15600
C706        C  0.61026409  0.14560447  0.62268530    -0.30800
H707        H  0.61013624  0.19176605  0.62788210     0.13400
H708        H  0.62295709  0.12392141  0.62920735     0.14000
C709        C  0.48568207  0.25657805  0.50894980    -0.15600
C710        C  0.48098275  0.22846442  0.50105724    -0.30800
H711        H  0.49532288  0.26110524  0.52741234     0.13400
H712        H  0.46901012  0.22422933  0.48281975     0.14000
C713        C  0.36316560  0.34702540  0.37209270    -0.15600
C714        C  0.38325985  0.32307621  0.38336584    -0.30800
H715        H  0.37084124  0.36921543  0.37865974     0.13400
H716        H  0.37263936  0.30091689  0.37757858     0.14000
C717        C  0.25578589  0.23345338  0.25776296    -0.15600
C718        C  0.24396765  0.26212045  0.25235681    -0.30800
H719        H  0.27762164  0.22743255  0.27373925     0.13400
H720        H  0.22192598  0.26801978  0.23640215     0.14000
C721        C  0.14207134  0.17120901  0.12947057    -0.15600
C722        C  0.11224261  0.14952448  0.12045207    -0.30800
H723        H  0.14078622  0.19327134  0.12128453     0.13400
H724        H  0.11216204  0.12749311  0.12868077     0.14000
C725        C  0.74376841  0.27230537  0.75183008    -0.15600
C726        C  0.74417049  0.24374800  0.75942054    -0.30800
H727        H  0.73332024  0.27834998  0.73360998     0.13400
H728        H  0.75774069  0.23782073  0.77724301     0.14000
C729        C  0.99313548  0.24228402  0.00059290    -0.15600
C730        C  0.00043841  0.27021250  0.00829971    -0.30800
H731        H  0.97686040  0.23831700  0.98301214     0.13400
H732        H  0.01439047  0.27437042  0.02625113     0.14000
C733        C  0.88492824  0.35412505  0.88717337    -0.15600
C734        C  0.85520732  0.33195646  0.87863552    -0.30800
H735        H  0.88781174  0.37499072  0.87720601     0.13400
H736        H  0.85571878  0.31029757  0.88749570     0.14000
C737        C  0.88641613  0.46188558  0.95473033    -0.15600
C738        C  0.88181738  0.44016662  0.97121538    -0.30800
H739        H  0.90834494  0.45809368  0.93842704     0.13400
H740        H  0.85862474  0.44369219  0.98720106     0.14000
C741        C  0.92991572  0.09508273  0.98330798    -0.15600
C742        C  0.92625364  0.10187984  0.00649745    -0.30800
H743        H  0.96020438  0.10490615  0.97208065     0.13400
H744        H  0.89323417  0.09343822  0.01686370     0.14000
C745        C  0.87715242  0.43084528  0.80530540    -0.15600
C746        C  0.87958633  0.45057260  0.78722409    -0.30800
H747        H  0.89444202  0.43597065  0.82247435     0.13400
H748        H  0.86027232  0.44580820  0.77042255     0.14000
C749        C  0.88348761  0.02889959  0.86646758    -0.15600
C750        C  0.86596752  0.05231649  0.87871348    -0.30800
H751        H  0.87440967  0.00637573  0.87240768     0.13400
H752        H  0.87804957  0.07460376  0.87330551     0.14000
C753        C  0.81103984  0.09720842  0.76878388    -0.15600
C754        C  0.81420320  0.10855852  0.74634014    -0.30800
H755        H  0.77937330  0.10329231  0.78069125     0.13400
H756        H  0.84768719  0.10319032  0.73520076     0.14000
C757        C  0.31532597  0.27420145  0.51015346    -0.15600
C758        C  0.30828920  0.28632128  0.48829845    -0.30800
H759        H  0.35202954  0.27792664  0.51950013     0.13400
H760        H  0.27247335  0.28275404  0.47830636     0.14000
C761        C  0.35536953  0.19090687  0.58407986    -0.15600
C762        C  0.38153325  0.16501174  0.58416228    -0.30800
H763        H  0.37742954  0.21152382  0.58515687     0.13400
H764        H  0.35955727  0.14430824  0.58406380     0.14000
C765        C  0.98227059  0.14955135  0.75268023    -0.15600
C766        C  0.99357411  0.12146736  0.74605060    -0.30800
H767        H  0.96182392  0.15401805  0.76924418     0.13400
H768        H  0.01440865  0.11707984  0.72956587     0.14000
C769        C  0.12745847  0.20828283  0.62062420    -0.15600
C770        C  0.10057972  0.23169456  0.62910351    -0.30800
H771        H  0.12467897  0.18688311  0.62980564     0.13400
H772        H  0.10249286  0.25315273  0.61998947     0.14000
C773        C  0.92855222  0.29436498  0.77026954    -0.15600
C774        C  0.92529855  0.29058214  0.74647033    -0.30800
H775        H  0.95730478  0.28215999  0.78078474     0.13400
H776        H  0.89359677  0.30121910  0.73660832     0.14000
C777        C  0.88178695  0.19298000  0.67058503    -0.15600
C778        C  0.83849404  0.20986308  0.67305899    -0.30800
H779        H  0.87734689  0.16898492  0.66973747     0.13400
H780        H  0.84312913  0.23370906  0.67512553     0.14000
C781        C  0.36257677  0.44874986  0.30063506    -0.15600
C782        C  0.36852608  0.42621978  0.28540657    -0.30800
H783        H  0.33728130  0.44617088  0.31612747     0.13400
H784        H  0.39683098  0.42803430  0.27096236     0.14000
C785        C  0.32236763  0.09474894  0.24052197    -0.15600
C786        C  0.31892609  0.08586979  0.26361136    -0.30800
H787        H  0.35562476  0.08753486  0.22995733     0.13400
H788        H  0.28801469  0.09441459  0.27491459     0.14000
C789        C  0.37279235  0.42110062  0.45386945    -0.15600
C790        C  0.36837484  0.44016374  0.47184631    -0.30800
H791        H  0.35731264  0.42678380  0.43632346     0.13400
H792        H  0.38529129  0.43485972  0.48918776     0.14000
C793        C  0.25077048  0.10806538  0.50337709    -0.15600
C794        C  0.25451030  0.13675134  0.49604635    -0.30800
H795        H  0.23829575  0.10259663  0.52145336     0.13400
H796        H  0.26866108  0.14239856  0.47826835     0.14000
C797        C  0.36490161  0.02166694  0.38395577    -0.15600
C798        C  0.38809044  0.04470264  0.37261138    -0.30800
H799        H  0.36534702  0.99980273  0.37597518     0.13400
H800        H  0.38307041  0.06697203  0.37951375     0.14000
C801        C  0.42908635  0.08491630  0.51065919    -0.15600
C802        C  0.43501904  0.07641777  0.48793828    -0.30800
H803        H  0.39598350  0.07659325  0.52103474     0.13400
H804        H  0.46576260  0.08580186  0.47672463     0.14000
C805        C  0.50670858  0.11144004  0.24805096    -0.15600
C806        C  0.50118006  0.13949572  0.25569926    -0.30800
H807        H  0.52006405  0.10680703  0.23008023     0.13400
H808        H  0.48533115  0.14384865  0.27331210     0.14000
C809        C  0.42729771  0.27504899  0.25036896    -0.15600
C810        C  0.43128330  0.28534014  0.27284858    -0.30800
H811        H  0.39252770  0.28035653  0.23994818     0.13400
H812        H  0.46415779  0.27928284  0.28418776     0.14000
C813        C  0.35751191  0.20105045  0.17140919    -0.15600
C814        C  0.40050362  0.18374289  0.17118429    -0.30800
H815        H  0.36238764  0.22496969  0.17284860     0.13400
H816        H  0.39577858  0.15972321  0.17119434     0.14000
C817        C  0.74610324  0.15132599  0.99225548    -0.15600
C818        C  0.74181940  0.12243653  0.99901977    -0.30800
H819        H  0.76112981  0.15762851  0.97475931     0.13400
H820        H  0.72929783  0.11617713  0.01693405     0.14000
C821        C  0.63845135  0.21032365  0.12329586    -0.15600
C822        C  0.61465078  0.23258322  0.13472650    -0.30800
H823        H  0.63415161  0.18771220  0.13016962     0.13400
H824        H  0.61731437  0.25522505  0.12778669     0.14000
C825        C  0.81875029  0.28791106  0.01340569    -0.15600
C826        C  0.81515908  0.29930582  0.99105141    -0.30800
H827        H  0.85290072  0.29329671  0.02410074     0.13400
H828        H  0.78326608  0.29282926  0.97942357     0.14000
C829        C  0.84980575  0.17939232  0.08087159    -0.15600
C830        C  0.89295289  0.19617263  0.08383680    -0.30800
H831        H  0.85455236  0.15572815  0.07785401     0.13400
H832        H  0.88861608  0.22010933  0.08532349     0.14000
C833        C  0.17410263  0.23491618  0.00119255    -0.15600
C834        C  0.17856837  0.22190938  0.02296028    -0.30800
H835        H  0.13956588  0.23049020  0.99045610     0.13400
H836        H  0.21138054  0.22682867  0.03456793     0.14000
C837        C  0.15007310  0.33518891  0.92740798    -0.15600
C838        C  0.10588559  0.31886926  0.92527749    -0.30800
H839        H  0.14663168  0.35905573  0.92972338     0.13400
H840        H  0.10883911  0.29494156  0.92327199     0.14000
C841        C  0.37736944  0.30995136  0.87381728    -0.15600
C842        C  0.36263768  0.28715938  0.88798342    -0.30800
H843        H  0.36471182  0.33236555  0.87793633     0.13400
H844        H  0.37189710  0.26450398  0.88299359     0.14000
C845        C  0.55375373  0.22323073  0.73940882    -0.15600
C846        C  0.54965622  0.22610000  0.76336596    -0.30800
H847        H  0.52870873  0.23610485  0.72749976     0.13400
H848        H  0.57510450  0.21319641  0.77509115     0.14000
C849        C  0.59533124  0.32676377  0.83340994    -0.15600
C850        C  0.63897997  0.31002245  0.83442838    -0.30800
H851        H  0.59888377  0.35084619  0.83331550     0.13400
H852        H  0.63557891  0.28593763  0.83494822     0.14000
C853        C  0.60860495  0.04333724  0.52804933    -0.15600
C854        C  0.62981031  0.07053141  0.53051410    -0.30800
H855        H  0.56656862  0.04045697  0.52604698     0.13400
H856        H  0.67205009  0.07360145  0.53072503     0.14000
C857        C  0.56210025  0.40261084  0.51943228    -0.15600
C858        C  0.56044853  0.39778290  0.49561348    -0.30800
H859        H  0.53641917  0.39032256  0.53149392     0.13400
H860        H  0.58688634  0.41010722  0.48389547     0.14000
C861        C  0.62083656  0.06030102  0.70584406    -0.15600
C862        C  0.61359185  0.08271073  0.72103365    -0.30800
H863        H  0.64709771  0.06316211  0.69071460     0.13400
H864        H  0.58464081  0.08058900  0.73519119     0.14000
C865        C  0.50147167  0.39066896  0.75511555    -0.15600
C866        C  0.49001256  0.36392204  0.74617204    -0.30800
H867        H  0.50137351  0.39414728  0.77427489     0.13400
H868        H  0.48919685  0.36027266  0.72705685     0.14000
C869        C  0.60943911  0.47601483  0.63337403    -0.15600
C870        C  0.64064327  0.45479536  0.62460160    -0.30800
H871        H  0.60217221  0.49618562  0.62300368     0.13400
H872        H  0.64446254  0.43387429  0.63440556     0.14000
C873        C  0.68474544  0.41486367  0.73906149    -0.15600
C874        C  0.68907579  0.41390014  0.76313168    -0.30800
H875        H  0.70519909  0.39856387  0.72841803     0.13400
H876        H  0.66636609  0.42935640  0.77367661     0.14000
C877        C  0.74135654  0.35804045  0.50408724    -0.15600
C878        C  0.74475308  0.38633281  0.49582342    -0.30800
H879        H  0.73006728  0.35300515  0.52239950     0.13400
H880        H  0.75885351  0.39137212  0.47792183     0.14000
C881        C  0.67647528  0.21728351  0.49932331    -0.15600
C882        C  0.66791483  0.21476173  0.52322745    -0.30800
H883        H  0.65369777  0.20356153  0.48736933     0.13400
H884        H  0.69025452  0.22809975  0.53559688     0.14000
C885        C  0.64383486  0.31158075  0.42203834    -0.15600
C886        C  0.59958695  0.29553537  0.42389682    -0.30800
H887        H  0.64141839  0.33562921  0.42017407     0.13400
H888        H  0.60178964  0.27143790  0.42522379     0.14000
C889        C  0.88501549  0.26697779  0.37264676    -0.15600
C890        C  0.85982759  0.28883479  0.38395230    -0.30800
H891        H  0.88346706  0.24434705  0.37966814     0.13400
H892        H  0.86423036  0.31159704  0.37746697     0.14000
C893        C  0.07612334  0.22598994  0.25708292    -0.15600
C894        C  0.07192287  0.21773964  0.23403469    -0.30800
H895        H  0.10961326  0.21852050  0.26753754     0.13400
H896        H  0.04030219  0.22600455  0.22282599     0.14000
C897        C  0.10090105  0.31813866  0.33663482    -0.15600
C898        C  0.14466691  0.30131002  0.33612978    -0.30800
H899        H  0.10479970  0.34220270  0.33654943     0.13400
H900        H  0.14058933  0.27731106  0.33506363     0.14000
C901        C  0.13425703  0.05192325  0.20508138    -0.15600
C902        C  0.11597465  0.07941012  0.20887320    -0.30800
H903        H  0.17612460  0.04811105  0.20341125     0.13400
H904        H  0.07485883  0.08274510  0.21311301     0.14000
C905        C  0.98939692  0.39235628  0.25945710    -0.15600
C906        C  0.00147193  0.36396267  0.25390297    -0.30800
H907        H  0.96734879  0.39741955  0.27546645     0.13400
H908        H  0.02370629  0.35910169  0.23789360     0.14000
C909        C  0.16922693  0.39822330  0.25954257    -0.15600
C910        C  0.17433713  0.40844183  0.23684328    -0.30800
H911        H  0.13527356  0.40460230  0.27001232     0.13400
H912        H  0.20652474  0.40130110  0.22563129     0.14000
C913        C  0.11393423  0.05445154  0.03255921    -0.15600
C914        C  0.13163273  0.08232126  0.03451962    -0.30800
H915        H  0.07219974  0.05011997  0.03092034     0.13400
H916        H  0.17340310  0.08697337  0.03383467     0.14000
C917        C  0.25987012  0.40018434  0.00382878    -0.15600
C918        C  0.25021134  0.37170509  0.01052127    -0.30800
H919        H  0.28061006  0.40542328  0.98735940     0.13400
H920        H  0.22908104  0.36646660  0.02688702     0.14000
C921        C  0.11128352  0.46492609  0.13312864    -0.15600
C922        C  0.14128392  0.48718446  0.12425619    -0.30800
H923        H  0.11248565  0.44345125  0.12450504     0.13400
H924        H  0.14170976  0.50865089  0.13287309     0.14000
C925        C  0.07230352  0.41184319  0.00159719    -0.15600
C926        C  0.07287805  0.41900362  0.02494563    -0.30800
H927        H  0.10062950  0.42221232  0.98959185     0.13400
H928        H  0.04520092  0.40891864  0.03737444     0.14000
C929        C  0.10617818  0.29248086  0.53655723    -0.15600
C930        C  0.12494506  0.32003597  0.53983180    -0.30800
H931        H  0.06476790  0.28888177  0.53315104     0.13400
H932        H  0.16690214  0.32387361  0.54104227     0.14000
C933        C  0.17348074  0.46125033  0.52361345    -0.15600
C934        C  0.17437033  0.46786797  0.50007948    -0.30800
H935        H  0.20096034  0.47152747  0.53576494     0.13400
H936        H  0.14659673  0.45728125  0.48820863     0.14000
C937        C  0.92127441  0.34109919  0.51168033    -0.15600
C938        C  0.92740637  0.33179395  0.48917634    -0.30800
H939        H  0.88646871  0.33449694  0.52165601     0.13400
H940        H  0.96023816  0.33922176  0.47828702     0.14000
C941        C  0.84675031  0.42027607  0.58297626    -0.15600
C942        C  0.88931654  0.43749011  0.58592991    -0.30800
H943        H  0.85200899  0.39651525  0.58062448     0.13400
H944        H  0.88445652  0.46145695  0.58675860     0.14000
C945        C  0.12971667  0.30664174  0.71231638    -0.15600
C946        C  0.11226360  0.33469073  0.71052048    -0.30800
H947        H  0.17099673  0.30220092  0.71546263     0.13400
H948        H  0.07040754  0.33907965  0.70993285     0.14000
C949        C  0.14205974  0.41807179  0.62987056    -0.15600
C950        C  0.11076877  0.39560609  0.62325074    -0.30800
H951        H  0.14153176  0.43882469  0.61967555     0.13400
H952        H  0.11011611  0.37484474  0.63340376     0.14000
C953        C  0.06364702  0.47557454  0.72862112    -0.15600
C954        C  0.06731178  0.48410691  0.75154433    -0.30800
H955        H  0.03313780  0.48410889  0.71690544     0.13400
H956        H  0.09890812  0.47545346  0.76264875     0.14000
C957        C  0.31726281  0.36010457  0.74822920    -0.15600
C958        C  0.30557995  0.34149640  0.76654457    -0.30800
H959        H  0.35796031  0.36309628  0.74293878     0.13400
H960        H  0.26521893  0.33601234  0.77090218     0.14000
C961        C  0.35299852  0.45703344  0.67531301    -0.15600
C962        C  0.39668600  0.44053256  0.67374804    -0.30800
H963        H  0.35690355  0.48076489  0.67829056     0.13400
H964        H  0.39359078  0.41674576  0.67094921     0.14000
C965        C  0.37423742  0.18984162  0.95417748    -0.15600
C966        C  0.37561754  0.20903764  0.97228518    -0.30800
H967        H  0.35261160  0.19528758  0.93800590     0.13400
H968        H  0.40072098  0.20478364  0.98760423     0.14000
C969        C  0.56416072  0.16596152  0.01772354    -0.15600
C970        C  0.56338775  0.16181062  0.99383618    -0.30800
H971        H  0.53749750  0.15369221  0.02933921     0.13400
H972        H  0.59102751  0.17405000  0.98265128     0.14000
C973        C  0.60011864  0.06470167  0.91722971    -0.15600
C974        C  0.64532268  0.08009224  0.91631604    -0.30800
H975        H  0.60118858  0.04054994  0.91725914     0.13400
H976        H  0.64396443  0.10424334  0.91568845     0.14000
C977        C  0.30923746  0.05217238  0.98152783    -0.15600
C978        C  0.32104055  0.03108610  0.99802547    -0.30800
H979        H  0.26892171  0.05852576  0.97800883     0.13400
H980        H  0.36184449  0.02713905  0.00264591     0.14000
C981        C  0.36221874  0.20418346  0.80436654    -0.15600
C982        C  0.35999411  0.18560851  0.78592350    -0.30800
H983        H  0.34657107  0.19753752  0.82168578     0.13400
H984        H  0.37673826  0.19216529  0.76878726     0.14000
C985        C  0.24110054  0.01951818  0.74235099    -0.15600
C986        C  0.24492737  0.49161789  0.75600333    -0.30800
H987        H  0.22990744  0.02482180  0.72408502     0.13400
H988        H  0.25791449  0.48674024  0.77409226     0.14000
C989        C  0.35931201  0.08183302  0.86588376    -0.15600
C990        C  0.38612888  0.10390459  0.87619155    -0.30800
H991        H  0.36120246  0.05953814  0.87359721     0.13400
H992        H  0.38825576  0.12554329  0.86732747     0.14000
C993        C  0.17046088  0.15937567  0.75539237    -0.15600
C994        C  0.16760512  0.16501039  0.73160479    -0.30800
H995        H  0.14499450  0.17133434  0.76746428     0.13400
H996        H  0.19285229  0.15331023  0.71929780     0.14000
C997        C  0.09850669  0.07620616  0.82861056    -0.15600
C998        C  0.14203337  0.05924744  0.82939359    -0.30800
H999        H  0.10265382  0.10023957  0.82739191     0.13400
H1000       H  0.13846649  0.03517983  0.83022293     0.14000
C1001       C  0.42803100  0.02238404  0.75006966    -0.15600
C1002       C  0.42413368  0.05178513  0.75345764    -0.30800
H1003       H  0.40346683  0.00712650  0.76031477     0.13400
H1004       H  0.44960279  0.06683738  0.74346865     0.14000
C1005       C  0.61424109  0.32952888  0.22007309    -0.15600
C1006       C  0.63320230  0.30172794  0.22015818    -0.30800
H1007       H  0.57229668  0.33338082  0.22119097     0.13400
H1008       H  0.67516575  0.29792568  0.22136315     0.14000
C1009       C  0.55788329  0.47132376  0.26117945    -0.15600
C1010       C  0.56368198  0.46837394  0.23731398    -0.30800
H1011       H  0.58276549  0.45850560  0.27321987     0.13400
H1012       H  0.53902281  0.48088683  0.22499810     0.14000
C1013       C  0.81522775  0.33898113  0.27285484    -0.15600
C1014       C  0.81941380  0.35004527  0.25031315    -0.30800
H1015       H  0.78306978  0.34540815  0.28435994     0.13400
H1016       H  0.85347218  0.34432191  0.23966642     0.14000
C1017       C  0.89255577  0.43246849  0.17237143    -0.15600
C1018       C  0.84938649  0.44963862  0.17266990    -0.30800
H1019       H  0.88776176  0.40844946  0.17296186     0.13400
H1020       H  0.85388649  0.47364179  0.17335060     0.14000
C1021       C  0.61631267  0.30731012  0.04431155    -0.15600
C1022       C  0.63794025  0.33467351  0.04443144    -0.30800
H1023       H  0.57409188  0.30491995  0.04280558     0.13400
H1024       H  0.68021762  0.33711708  0.04325791     0.14000
C1025       C  0.49087679  0.02255290  0.00076165    -0.15600
C1026       C  0.50535062  0.49195395  0.99299035    -0.30800
H1027       H  0.50226570  0.02770891  0.01890407     0.13400
H1028       H  0.49312983  0.48582723  0.97516238     0.14000
C1029       C  0.63607669  0.40412074  0.13516580    -0.15600
C1030       C  0.61389153  0.42732839  0.12374378    -0.30800
H1031       H  0.63340076  0.38197027  0.12779020     0.13400
H1032       H  0.61860356  0.44950053  0.13090714     0.14000
C1033       C  0.69076291  0.47683673  0.01769895    -0.15600
C1034       C  0.69517420  0.47979234  0.99365855    -0.30800
H1035       H  0.71405941  0.49068987  0.02933119     0.13400
H1036       H  0.65003193  0.97058659  0.97893208     0.14000
C1037       C  0.43547558  0.35758360  0.01211297    -0.15600
C1038       C  0.43777370  0.34809982  0.98932500    -0.30800
H1039       H  0.40212753  0.35137080  0.02320075     0.13400
H1040       H  0.46911435  0.35533100  0.97747451     0.14000
C1041       C  0.40378542  0.46067202  0.08126936    -0.15600
C1042       C  0.36069154  0.44362128  0.08433793    -0.30800
H1043       H  0.39889344  0.48448392  0.07854051     0.13400
H1044       H  0.36517181  0.41963346  0.08571749     0.14000
C1045       C  0.88164719  0.17403613  0.29842086    -0.15600
C1046       C  0.87661488  0.19737588  0.28341161    -0.30800
H1047       H  0.90646403  0.17555863  0.31409517     0.13400
H1048       H  0.84873306  0.19654420  0.26879045     0.14000
C1049       C  0.75939136  0.01298926  0.24521613    -0.15600
C1050       C  0.75689182  0.48749894  0.25653282    -0.30800
H1051       H  0.75605756  0.01790458  0.22623102     0.13400
H1052       H  0.77012291  0.48238325  0.27456178     0.14000
C1053       C  0.68899064  0.15405735  0.25713676    -0.15600
C1054       C  0.68618029  0.16032280  0.23349971    -0.30800
H1055       H  0.66276689  0.16532472  0.26931471     0.13400
H1056       H  0.71190158  0.14935288  0.22096215     0.14000
C1057       C  0.64846685  0.05114908  0.32933981    -0.15600
C1058       C  0.60450089  0.06749103  0.33104072    -0.30800
H1059       H  0.64584955  0.02703865  0.32913663     0.13400
H1060       H  0.60744004  0.09156767  0.33179951     0.14000
C1061       C  0.93889242  0.04014715  0.26333850    -0.15600
C1062       C  0.93221764  0.03203223  0.24038807    -0.30800
H1063       H  0.97186937  0.03184615  0.27367778     0.13400
H1064       H  0.89725693  0.03924577  0.23087173     0.14000
C1065       C  0.87979590  0.17392066  0.45024960    -0.15600
C1066       C  0.87287335  0.19248297  0.46843534    -0.30800
H1067       H  0.86596484  0.17996910  0.43249371     0.13400
H1068       H  0.88841398  0.18680020  0.48597394     0.14000
C1069       C  0.98569994  0.00779479  0.50526412    -0.15600
C1070       C  0.98757486  0.47906917  0.50059855    -0.30800
H1071       H  0.99592917  0.01266875  0.52360492     0.13400
H1072       H  0.97386378  0.47379535  0.48280332     0.14000
C1073       C  0.90549900  0.08176958  0.37618962    -0.15600
C1074       C  0.85365143  0.07980663  0.37293340    -0.30800
H1075       H  0.93139891  0.08526831  0.36101276     0.13400
H1076       H  0.82749040  0.07934073  0.38823745     0.14000
C1077       C  0.06504748  0.14689709  0.49637619    -0.15600
C1078       C  0.06950745  0.14919749  0.52041439    -0.30800
H1079       H  0.09035918  0.16033958  0.48492445     0.13400
H1080       H  0.04540268  0.13568245  0.53231256     0.14000
C1081       C  0.10484809  0.04598102  0.42379059    -0.15600
C1082       C  0.14998355  0.06125298  0.42218448    -0.30800
H1083       H  0.10553047  0.02183871  0.42484935     0.13400
H1084       H  0.14901798  0.08534179  0.42037289     0.14000
C1085       C  0.80809738  0.03851675  0.48228060    -0.15600
C1086       C  0.81215371  0.02890501  0.50512531    -0.30800
H1087       H  0.77693630  0.03042785  0.47090785     0.13400
H1088       H  0.84544799  0.03604328  0.51570415     0.14000
O1089       O  0.86493219  0.57736184  0.48222825    -0.81000
C1090       C  0.05176918  0.56171265  0.42908761     0.98400
O1091       O  0.01056775  0.54624188  0.42669116    -0.70100
O1092       O  0.98303328  0.52848243  0.46937409    -0.73700
Al1093     Al  0.94559904  0.54687315  0.44474894     1.49000
C1094       C  0.97668002  0.53189127  0.49144441     0.93600
O1095       O  0.00005448  0.60833548  0.49552016    -0.79900
O1096       O  0.92575310  0.63475952  0.43786260    -0.73500
Al1097     Al  0.93423743  0.59229865  0.48586966     1.90100
O1098       O  0.01742884  0.63290490  0.46263257    -0.72500
O1099       O  0.96180483  0.59534233  0.40745876    -0.72400
O1100       O  0.04891735  0.58820752  0.43617420    -0.78000
O1101       O  0.90489110  0.56155036  0.41868092    -0.76200
O1102       O  0.95512687  0.58313800  0.45638320    -1.12400
O1103       O  0.88168447  0.53804775  0.46104496    -0.71600
C1104       C  0.85305846  0.55160368  0.47553539     0.99200
C1105       C  0.02476195  0.62854993  0.48463485     0.95600
Al1106     Al  0.98587777  0.61049425  0.43766446     1.55600
O1107       O  0.95651742  0.55523152  0.49980727    -0.76200
C1108       C  0.92276573  0.57912151  0.40297431     0.99700
C1109       C  0.90259569  0.64402350  0.45620501     0.94600
O1110       O  0.90788170  0.63117661  0.47643082    -0.81500
O1111       O  0.88177187  0.58633190  0.27323467    -0.81000
C1112       C  0.69481586  0.56720992  0.32618467     0.98400
O1113       O  0.73613501  0.55183598  0.32863558    -0.70100
O1114       O  0.76212390  0.53653132  0.28580418    -0.73700
Al1115     Al  0.80057044  0.55347537  0.31008588     1.49000
C1116       C  0.77009040  0.53996924  0.26378850     0.93600
O1117       O  0.74591590  0.61534040  0.25919480    -0.79900
O1118       O  0.81871094  0.64144657  0.31649294    -0.73500
Al1119     Al  0.81195547  0.60023913  0.26895139     1.90100
O1120       O  0.72743667  0.63904520  0.29187664    -0.72500
O1121       O  0.78541946  0.60064039  0.34723631    -0.72400
O1122       O  0.69754893  0.59382383  0.31884950    -0.78000
O1123       O  0.84190835  0.56712117  0.33584734    -0.76200
O1124       O  0.79097112  0.59008419  0.29846513    -1.12400
O1125       O  0.86400838  0.54540866  0.29328517    -0.71600
C1126       C  0.89309025  0.55998386  0.27923510     0.99200
C1127       C  0.72107136  0.63526347  0.26983203     0.95600
Al1128     Al  0.75984431  0.61651932  0.31706128     1.55600
O1129       O  0.79166198  0.56312056  0.25520082    -0.76200
C1130       C  0.82444839  0.58415256  0.35160804     0.99700
C1131       C  0.83901298  0.65231496  0.29780856     0.94600
O1132       O  0.83543531  0.63947226  0.27784309    -0.81500
O1133       O  0.60263218  0.88405283  0.02087062    -0.81000
C1134       C  0.44547223  0.94065186  0.07450258     0.98400
O1135       O  0.45479390  0.91308295  0.07527622    -0.70100
O1136       O  0.45298774  0.88227053  0.03694608    -0.73700
Al1137     Al  0.50647628  0.88909074  0.05961766     1.49000
C1138       C  0.46099322  0.87468592  0.01582858     0.93600
O1139       O  0.50390049  0.94298726  0.00177246    -0.79900
O1140       O  0.62103975  0.95611891  0.04603400    -0.73500
Al1141     Al  0.55238651  0.91326660  0.01224142     1.90100
O1142       O  0.52652897  0.97604070  0.02882164    -0.72500
O1143       O  0.57463616  0.93823156  0.08589680    -0.72400
O1144       O  0.47988632  0.95868887  0.06738101    -0.78000
O1145       O  0.55558734  0.89082405  0.08499003    -0.76200
O1146       O  0.53596731  0.91888499  0.04289133    -1.12400
O1147       O  0.55186242  0.85942686  0.04642472    -0.71600
C1148       C  0.59246551  0.86110362  0.03337466     0.99200
C1149       C  0.50579560  0.96961308  0.00901736     0.95600
Al1150     Al  0.54916967  0.95406993  0.05615990     1.55600
O1151       O  0.50202276  0.88291247  0.00524598    -0.76200
C1152       C  0.57888248  0.91222619  0.09450346     0.99700
C1153       C  0.63303454  0.95655365  0.02422050     0.94600
O1154       O  0.60671154  0.94158564  0.00982767    -0.81500
O1155       O  0.65519221  0.86541206  0.22477199    -0.81000
C1156       C  0.79834444  0.93289801  0.17201084     0.98400
O1157       O  0.79188426  0.90601176  0.17809489    -0.70100
O1158       O  0.76283105  0.86197905  0.20686974    -0.73700
Al1159     Al  0.72662278  0.88597627  0.18281529     1.49000
C1160       C  0.77357822  0.86560500  0.22871914     0.93600
O1161       O  0.71257870  0.93936283  0.24653233    -0.79900
O1162       O  0.64099269  0.96181283  0.21139449    -0.73500
Al1163     Al  0.68570970  0.90361180  0.23283787     1.90100
O1164       O  0.74607153  0.96413208  0.21596907    -0.72500
O1165       O  0.65288055  0.94245615  0.16809136    -0.72400
O1166       O  0.75969704  0.95032930  0.17152225    -0.78000
O1167       O  0.69380340  0.90347784  0.15419945    -0.76200
O1168       O  0.70368729  0.91347822  0.20279887    -1.12400
O1169       O  0.66514566  0.86309921  0.18582592    -0.71600
C1170       C  0.64591227  0.85310023  0.20499404     0.99200
C1171       C  0.73798479  0.96120873  0.23800769     0.95600
Al1172     Al  0.70003092  0.95123153  0.19255325     1.55600
O1173       O  0.75121561  0.88576063  0.24022407    -0.76200
C1174       C  0.65989529  0.92402113  0.15180980     0.99700
C1175       C  0.60995198  0.94806680  0.22509308     0.94600
O1176       O  0.61758064  0.92102016  0.23054916    -0.81500
O1177       O  0.37082942  0.59497458  0.76246310    -0.81000
C1178       C  0.19894976  0.57536448  0.82395847     0.98400
O1179       O  0.24199307  0.56150646  0.82586026    -0.70100
O1180       O  0.25990828  0.54261489  0.78330414    -0.73700
Al1181     Al  0.30179992  0.56309102  0.80440735     1.49000
C1182       C  0.26159577  0.54467496  0.76096247     0.93600
O1183       O  0.23055482  0.61901517  0.75283206    -0.79900
O1184       O  0.31192055  0.65274502  0.80412023    -0.73500
Al1185     Al  0.29946359  0.60614675  0.76044629     1.90100
O1186       O  0.21621841  0.64457461  0.78501527    -0.72500
O1187       O  0.29189346  0.61457957  0.83868294    -0.72400
O1188       O  0.19814248  0.60164647  0.81584454    -0.78000
O1189       O  0.34682245  0.58014975  0.82733821    -0.76200
O1190       O  0.28612206  0.59844393  0.79124514    -1.12400
O1191       O  0.36229725  0.55514714  0.78487247    -0.71600
C1192       C  0.38658169  0.56963796  0.76884652     0.99200
C1193       C  0.20626367  0.63912219  0.76354155     0.95600
Al1194     Al  0.25687330  0.62597883  0.80947892     1.55600
O1195       O  0.27917097  0.56752077  0.75022081    -0.76200
C1196       C  0.33263023  0.59921621  0.84228729     0.99700
C1197       C  0.32902879  0.66112644  0.78398185     0.94600
O1198       O  0.32202546  0.64597201  0.76546443    -0.81500
O1199       O  0.37170318  0.58630018  0.97453186    -0.81000
C1200       C  0.55562776  0.57468786  0.91992072     0.98400
O1201       O  0.51649241  0.55759231  0.91823488    -0.70100
O1202       O  0.49603331  0.54107723  0.96172746    -0.73700
Al1203     Al  0.45394229  0.55636778  0.93758371     1.49000
C1204       C  0.48859436  0.54423410  0.98368423     0.93600
O1205       O  0.50408104  0.62064977  0.98630845    -0.79900
O1206       O  0.42350971  0.64402608  0.92969768    -0.73500
Al1207     Al  0.43946965  0.60279782  0.97770734     1.90100
O1208       O  0.51769769  0.64529126  0.95299602    -0.72500
O1209       O  0.45784817  0.60505042  0.89929156    -0.72400
O1210       O  0.54976591  0.60136941  0.92601227    -0.78000
O1211       O  0.41019254  0.56739869  0.91196702    -0.76200
O1212       O  0.45932753  0.59359280  0.94810948    -1.12400
O1213       O  0.39235363  0.54587609  0.95537888    -0.71600
C1214       C  0.36259338  0.55966500  0.96931122     0.99200
C1215       C  0.52586800  0.64169066  0.97510153     0.95600
Al1216     Al  0.48519046  0.62155144  0.92856334     1.55600
O1217       O  0.46504429  0.56660372  0.99188809    -0.76200
C1218       C  0.42264817  0.58574137  0.89580809     0.99700
C1219       C  0.40272201  0.65345188  0.94847025     0.94600
O1220       O  0.41020163  0.64077171  0.96855501    -0.81500
O1221       O  0.13374971  0.88116756  0.72040787    -0.81000
C1222       C  0.29268072  0.94349096  0.67086241     0.98400
O1223       O  0.28382942  0.91598494  0.66857171    -0.70100
O1224       O  0.28354883  0.88141051  0.70581353    -0.73700
Al1225     Al  0.23119113  0.89009612  0.68260843     1.49000
C1226       C  0.27563924  0.87380706  0.72715120     0.93600
O1227       O  0.22956306  0.93986237  0.74201474    -0.79900
O1228       O  0.11485558  0.95467360  0.69632169    -0.73500
Al1229     Al  0.18253685  0.91026553  0.73021556     1.90100
O1230       O  0.20632084  0.97422919  0.71550911    -0.72500
O1231       O  0.16704476  0.94191207  0.65739810    -0.72400
O1232       O  0.25761748  0.96055400  0.67829424    -0.78000
O1233       O  0.18339686  0.89420790  0.65646439    -0.76200
O1234       O  0.20053472  0.91829241  0.69994754    -1.12400
O1235       O  0.18492802  0.85897079  0.69422977    -0.71600
C1236       C  0.14397328  0.85943378  0.70713337     0.99200
C1237       C  0.22697373  0.96688323  0.73513597     0.95600
Al1238     Al  0.18773386  0.95452500  0.68766985     1.55600
O1239       O  0.23343321  0.88044317  0.73718891    -0.76200
C1240       C  0.16245623  0.91718993  0.64760546     0.99700
C1241       C  0.10194101  0.95361649  0.71803288     0.94600
O1242       O  0.12734713  0.93766183  0.73242299    -0.81500
O1243       O  0.10172387  0.87025073  0.52143060    -0.81000
C1244       C  0.93613377  0.91368479  0.57673625     0.98400
O1245       O  0.95787068  0.88892136  0.58022577    -0.70100
O1246       O  0.95321362  0.86376435  0.53862610    -0.73700
Al1247     Al  0.00818562  0.86953566  0.56061410     1.49000
C1248       C  0.95989353  0.85971886  0.51662681     0.93600
O1249       O  0.00075563  0.92876176  0.50449719    -0.79900
O1250       O  0.10758174  0.94369828  0.55279218    -0.73500
Al1251     Al  0.04993773  0.89946723  0.51458072     1.90100
O1252       O  0.01462026  0.96007736  0.53357574    -0.72500
O1253       O  0.05651242  0.91990174  0.58986822    -0.72400
O1254       O  0.96183750  0.93510610  0.56787443    -0.78000
O1255       O  0.06181693  0.87181829  0.58408753    -0.76200
O1256       O  0.03129681  0.90197764  0.54509453    -1.12400
O1257       O  0.05152552  0.84235145  0.54442037    -0.71600
C1258       C  0.09127582  0.84559752  0.53133758     0.99200
C1259       C  0.99876059  0.95467621  0.51283370     0.95600
Al1260     Al  0.03456417  0.93666003  0.56009403     1.55600
O1261       O  0.99986442  0.86973256  0.50599574    -0.76200
C1262       C  0.07417475  0.89454604  0.59571390     0.99700
C1263       C  0.12483058  0.94399324  0.53159890     0.94600
O1264       O  0.10305954  0.92842765  0.51596157    -0.81500
O1265       O  0.14813125  0.51363757  0.02607878    -0.81000
C1266       C  0.29660572  0.94812752  0.07283680     0.98400
O1267       O  0.28939518  0.97584982  0.07209378    -0.70100
O1268       O  0.29406841  0.51641942  0.04172588    -0.73700
Al1269     Al  0.23797331  0.00048793  0.05676009     1.49000
C1270       C  0.28702555  0.52062365  0.01977461     0.93600
O1271       O  0.23480728  0.94754843  0.99991392    -0.79900
O1272       O  0.11925263  0.93445240  0.04511052    -0.73500
Al1273     Al  0.18776651  0.97761899  0.01052841     1.90100
O1274       O  0.21362838  0.91446091  0.02811081    -0.72500
O1275       O  0.16640989  0.95253591  0.08411198    -0.72400
O1276       O  0.26080849  0.93066908  0.06662532    -0.78000
O1277       O  0.19120193  0.99916859  0.08327964    -0.76200
O1278       O  0.20580816  0.97130295  0.04104404    -1.12400
O1279       O  0.19530824  0.53601462  0.05364172    -0.71600
C1280       C  0.15736279  0.53591206  0.03905827     0.99200
C1281       C  0.23322737  0.92090255  0.00787996     0.95600
Al1282     Al  0.19151123  0.93622731  0.05504762     1.55600
O1283       O  0.23816172  0.00777227  0.00226114    -0.76200
C1284       C  0.16550579  0.97826420  0.09283580     0.99700
C1285       C  0.10654795  0.93473650  0.02339601     0.94600
O1286       O  0.13284238  0.94992630  0.00882530    -0.81500
O1287       O  0.10616954  0.50174020  0.22922660    -0.81000
C1288       C  0.94781242  0.94149082  0.17437649     0.98400
O1289       O  0.95777246  0.96880168  0.17054654    -0.70100
O1290       O  0.95946908  0.50666982  0.21175522    -0.73700
Al1291     Al  0.01222549  0.99482417  0.18260926     1.49000
C1292       C  0.96635126  0.51346503  0.23323740     0.93600
O1293       O  0.01751179  0.94481152  0.24482454    -0.79900
O1294       O  0.12697710  0.93012354  0.19676935    -0.73500
Al1295     Al  0.06214774  0.97508151  0.23094954     1.90100
O1296       O  0.03912333  0.91080734  0.21886180    -0.72500
O1297       O  0.06937312  0.94077867  0.15847615    -0.72400
O1298       O  0.98209336  0.92434154  0.18287174    -0.78000
O1299       O  0.05881493  0.98880925  0.15578379    -0.76200
O1300       O  0.04233792  0.96676345  0.20107692    -1.12400
O1301       O  0.06011574  0.52457029  0.20102504    -0.71600
C1302       C  0.09847247  0.52377535  0.21535826     0.99200
C1303       C  0.02122548  0.91776197  0.23887743     0.95600
Al1304     Al  0.05321048  0.93002205  0.19002048     1.55600
O1305       O  0.01043370  0.00397100  0.23785722    -0.76200
C1306       C  0.07546127  0.96477554  0.14727742     0.99700
C1307       C  0.14235279  0.93218025  0.21808768     0.94600
O1308       O  0.11857393  0.94862716  0.23234889    -0.81500
O1309       O  0.87450790  0.80234194  0.26621664    -0.81000
C1310       C  0.05590788  0.79277023  0.32417067     0.98400
O1311       O  0.02446846  0.81466699  0.32512236    -0.70100
O1312       O  0.00519446  0.83890360  0.28391398    -0.73700
Al1313     Al  0.96029845  0.82278897  0.30685605     1.49000
C1314       C  0.99690505  0.83937425  0.26192504     0.93600
O1315       O  0.00313177  0.76319827  0.25484641    -0.79900
O1316       O  0.90612395  0.73750962  0.30546720    -0.73500
Al1317     Al  0.93971734  0.78290373  0.26274158     1.90100
O1318       O  0.00377964  0.73295297  0.28594746    -0.72500
O1319       O  0.94220483  0.76793585  0.34102085    -0.72400
O1320       O  0.03965608  0.76761829  0.31819699    -0.78000
O1321       O  0.91445687  0.81258235  0.33208691    -0.76200
O1322       O  0.95714258  0.78687708  0.29360139    -1.12400
O1323       O  0.89926132  0.83840884  0.28986916    -0.71600
C1324       C  0.86816851  0.82817307  0.27428784     0.99200
C1325       C  0.01873669  0.73966969  0.26508065     0.95600
Al1326     Al  0.97167617  0.75447528  0.31125627     1.55600
O1327       O  0.97088576  0.81923557  0.25200443    -0.76200
C1328       C  0.91465700  0.79033205  0.34586025     0.99700
C1329       C  0.89138252  0.73005927  0.28498989     0.94600
O1330       O  0.90421264  0.74526331  0.26675901    -0.81500
O1331       O  0.85821268  0.79852496  0.48630253    -0.81000
C1332       C  0.69874519  0.80202167  0.42181450     0.98400
O1333       O  0.73438102  0.81956017  0.42813981    -0.70100
O1334       O  0.78361997  0.83742834  0.46538273    -0.73700
Al1335     Al  0.80321254  0.81361835  0.43956044     1.49000
C1336       C  0.76122015  0.83257516  0.48503482     0.93600
O1337       O  0.74396998  0.74801321  0.49372237    -0.79900
O1338       O  0.80153879  0.71941160  0.45100530    -0.73500
Al1339     Al  0.79950284  0.77380946  0.48537784     1.90100
O1340       O  0.70259711  0.74095528  0.46047004    -0.72500
O1341       O  0.80585569  0.75106601  0.41143940    -0.72400
O1342       O  0.70595835  0.77420868  0.42207402    -0.78000
O1343       O  0.82710548  0.79792666  0.41058172    -0.76200
O1344       O  0.78661389  0.77867463  0.45403014    -1.12400
O1345       O  0.87474770  0.81335567  0.44984360    -0.71600
C1346       C  0.88614982  0.81278496  0.47170801     0.99200
C1347       C  0.70549608  0.73789049  0.48279108     0.95600
Al1348     Al  0.75683104  0.74917075  0.43759817     1.55600
O1349       O  0.75567598  0.80644831  0.49339399    -0.76200
C1350       C  0.82979172  0.77255949  0.40172103     0.99700
C1351       C  0.83671049  0.71887783  0.46693898     0.94600
O1352       O  0.84441763  0.74080224  0.48038996    -0.81500
O1353       O  0.59433957  0.51390885  0.73345895    -0.81000
C1354       C  0.44168268  0.95332372  0.67193351     0.98400
O1355       O  0.44487732  0.97876361  0.68107021    -0.70100
O1356       O  0.48478287  0.51940649  0.71971948    -0.73700
Al1357     Al  0.50736098  0.00115027  0.68520487     1.49000
C1358       C  0.47714699  0.51104805  0.74108007     0.93600
O1359       O  0.54249931  0.93802939  0.74193536    -0.79900
O1360       O  0.61116030  0.92583686  0.70300767    -0.73500
Al1361     Al  0.56107288  0.97688494  0.73097219     1.90100
O1362       O  0.50848792  0.91597200  0.71070102    -0.72500
O1363       O  0.58729650  0.95349593  0.66230823    -0.72400
O1364       O  0.48259853  0.93797706  0.66883701    -0.78000
O1365       O  0.53489781  0.99086747  0.65403940    -0.76200
O1366       O  0.53872033  0.97150878  0.70120253    -1.12400
O1367       O  0.57772851  0.52263514  0.69533889    -0.71600
C1368       C  0.60097315  0.52894517  0.71436306     0.99200
C1369       C  0.51844842  0.91654909  0.73269775     0.95600
Al1370     Al  0.54695253  0.93650695  0.68716286     1.55600
O1371       O  0.49474292  0.98846612  0.74195062    -0.76200
C1372       C  0.57281813  0.97420366  0.64840703     0.99700
C1373       C  0.64104263  0.93844091  0.71765266     0.94600
O1374       O  0.63081550  0.96432052  0.72476227    -0.81500
O1375       O  0.63577829  0.49639158  0.52752529    -0.81000
C1376       C  0.79758820  0.94525363  0.57425770     0.98400
O1377       O  0.77621269  0.97001877  0.57766242    -0.70100
O1378       O  0.78435661  0.49624546  0.54280308    -0.73700
Al1379     Al  0.72396730  0.99082753  0.55987960     1.49000
C1380       C  0.77668290  0.50451655  0.52151711     0.93600
O1381       O  0.73878061  0.93756268  0.50041772    -0.79900
O1382       O  0.62802001  0.91695119  0.54600472    -0.73500
Al1383     Al  0.68787387  0.96585617  0.51115847     1.90100
O1384       O  0.72234555  0.90380211  0.52807836    -0.72500
O1385       O  0.67725458  0.93535066  0.58566698    -0.72400
O1386       O  0.77269620  0.92458454  0.56429316    -0.78000
O1387       O  0.67086432  0.98384192  0.58363288    -0.76200
O1388       O  0.70384148  0.96009143  0.54204215    -1.12400
O1389       O  0.68669958  0.51696861  0.55458459    -0.71600
C1390       C  0.64734233  0.51785870  0.54087862     0.99200
C1391       C  0.73939985  0.91080397  0.50778716     0.95600
Al1392     Al  0.70050377  0.92353329  0.55510488     1.55600
O1393       O  0.73762352  0.99703973  0.50483402    -0.76200
C1394       C  0.66134253  0.95942824  0.59415693     0.99700
C1395       C  0.61274582  0.91854914  0.52443630     0.94600
O1396       O  0.63504713  0.93618217  0.50997394    -0.81500
O1397       O  0.35742863  0.79976787  0.77008053    -0.81000
C1398       C  0.54269556  0.81725716  0.82287150     0.98400
O1399       O  0.50307964  0.83390617  0.82334672    -0.70100
O1400       O  0.48640507  0.84479165  0.77843851    -0.73700
Al1401     Al  0.44238270  0.83315946  0.80325977     1.49000
C1402       C  0.47631402  0.84124345  0.75668893     0.93600
O1403       O  0.49040779  0.76578943  0.75790942    -0.79900
O1404       O  0.41297887  0.74549320  0.81583545    -0.73500
Al1405     Al  0.42574384  0.78377767  0.76618765     1.90100
O1406       O  0.50706348  0.74468114  0.79259022    -0.72500
O1407       O  0.44409674  0.78748925  0.84386698    -0.72400
O1408       O  0.53791098  0.79017863  0.81779604    -0.78000
O1409       O  0.39762466  0.82466988  0.82919663    -0.76200
O1410       O  0.44700986  0.79517010  0.79504907    -1.12400
O1411       O  0.38181525  0.84251328  0.78452862    -0.71600
C1412       C  0.34946436  0.82703703  0.77317879     0.99200
C1413       C  0.51428355  0.74656143  0.77030875     0.95600
Al1414     Al  0.47352043  0.76912018  0.81589001     1.55600
O1415       O  0.44967068  0.81927743  0.74971725    -0.76200
C1416       C  0.40858539  0.80695900  0.84608153     0.99700
C1417       C  0.39184802  0.73495554  0.79758076     0.94600
O1418       O  0.39828515  0.74664480  0.77712740    -0.81500
O1419       O  0.37811989  0.79856889  0.98140906    -0.81000
C1420       C  0.19719871  0.80825577  0.92405494     0.98400
O1421       O  0.23766211  0.82411947  0.92156195    -0.70100
O1422       O  0.25808992  0.84489858  0.96385994    -0.73700
Al1423     Al  0.29923515  0.82562427  0.94112626     1.49000
C1424       C  0.26328249  0.84305915  0.98618114     0.93600
O1425       O  0.24348256  0.76643160  0.99506979    -0.79900
O1426       O  0.32161033  0.73551688  0.94231563    -0.73500
Al1427     Al  0.30923446  0.78316111  0.98545566     1.90100
O1428       O  0.22725079  0.74078509  0.96313878    -0.72500
O1429       O  0.29447816  0.77218375  0.90789558    -0.72400
O1430       O  0.20063206  0.78205367  0.93220291    -0.78000
O1431       O  0.34282509  0.81069493  0.91690202    -0.76200
O1432       O  0.29074633  0.78964912  0.95498732    -1.12400
O1433       O  0.36068502  0.83648394  0.95783925    -0.71600
C1434       C  0.38950561  0.82388221  0.97301949     0.99200
C1435       C  0.21950175  0.74568727  0.98484482     0.95600
Al1436     Al  0.26324123  0.76033307  0.93778407     1.55600
O1437       O  0.28431257  0.82073008  0.99622430    -0.76200
C1438       C  0.33137032  0.78997091  0.90299254     0.99700
C1439       C  0.34265380  0.72849214  0.96197317     0.94600
O1440       O  0.33763485  0.74449483  0.98015633    -0.81500
O1441       O  0.63435433  0.76006498  0.02034449    -0.81000
C1442       C  0.78767698  0.69921658  0.07464989     0.98400
O1443       O  0.78228758  0.72709037  0.07373522    -0.70100
O1444       O  0.78423733  0.75982054  0.03572287    -0.73700
Al1445     Al  0.73114228  0.75255215  0.05901740     1.49000
C1446       C  0.77631941  0.76801664  0.01456170     0.93600
O1447       O  0.73264086  0.70128790  0.00198835    -0.79900
O1448       O  0.61187232  0.68734419  0.04401648    -0.73500
Al1449     Al  0.68402545  0.73089980  0.01173687     1.90100
O1450       O  0.70803282  0.66764499  0.02923374    -0.72500
O1451       O  0.65564308  0.70444490  0.08457356    -0.72400
O1452       O  0.75074574  0.68243107  0.06868044    -0.78000
O1453       O  0.68435619  0.75028942  0.08554905    -0.76200
O1454       O  0.69930069  0.72398827  0.04248979    -1.12400
O1455       O  0.68546461  0.78306366  0.04635466    -0.71600
C1456       C  0.64489245  0.78225709  0.03318715     0.99200
C1457       C  0.73082719  0.67459527  0.00985450     0.95600
Al1458     Al  0.68301808  0.68873297  0.05574317     1.55600
O1459       O  0.73415606  0.76138829  0.00457503    -0.76200
C1460       C  0.65728390  0.72949121  0.09442817     0.99700
C1461       C  0.60213333  0.68728292  0.02194622     0.94600
O1462       O  0.62973772  0.70281933  0.00814681    -0.81500
O1463       O  0.60398978  0.75171589  0.22766495    -0.81000
C1464       C  0.44738172  0.69031168  0.17577582     0.98400
O1465       O  0.45882602  0.71755295  0.17305759    -0.70100
O1466       O  0.45974808  0.75255897  0.20982856    -0.73700
Al1467     Al  0.51220740  0.74231165  0.18703390     1.49000
C1468       C  0.46457034  0.75755454  0.23177954     0.93600
O1469       O  0.51124700  0.68970205  0.24755723    -0.79900
O1470       O  0.62394069  0.67553516  0.20172304    -0.73500
Al1471     Al  0.55692364  0.72031075  0.23589508     1.90100
O1472       O  0.53307951  0.65625473  0.22122510    -0.72500
O1473       O  0.57062403  0.68910479  0.16256761    -0.72400
O1474       O  0.48012043  0.67230003  0.18444156    -0.78000
O1475       O  0.56059551  0.73726154  0.16069229    -0.76200
O1476       O  0.54025767  0.71336038  0.20528340    -1.12400
O1477       O  0.55844261  0.77245984  0.19843699    -0.71600
C1478       C  0.59454300  0.77361175  0.21389454     0.99200
C1479       C  0.51269285  0.66304407  0.24075669     0.95600
Al1480     Al  0.55092920  0.67687690  0.19337850     1.55600
O1481       O  0.50372351  0.74816689  0.24297002    -0.76200
C1482       C  0.57690909  0.71337892  0.15174225     0.99700
C1483       C  0.63875188  0.67768069  0.22313473     0.94600
O1484       O  0.61401861  0.69395705  0.23726850    -0.81500
O1485       O  0.37294778  0.53751580  0.49023541    -0.81000
C1486       C  0.20007692  0.54906873  0.42836466     0.98400
O1487       O  0.24126890  0.56462971  0.42637143    -0.70100
O1488       O  0.26336017  0.58594581  0.46794602    -0.73700
Al1489     Al  0.30324764  0.56474425  0.44619054     1.49000
C1490       C  0.26312492  0.58363375  0.49029375     0.93600
O1491       O  0.23640104  0.50739888  0.49891873    -0.79900
O1492       O  0.32192326  0.97314101  0.44747296    -0.73500
Al1493     Al  0.30365608  0.52290904  0.49139919     1.90100
O1494       O  0.22624034  0.98059601  0.46694719    -0.72500
O1495       O  0.29683750  0.51110146  0.41302782    -0.72400
O1496       O  0.20250473  0.52254261  0.43590018    -0.78000
O1497       O  0.34683976  0.54851341  0.42244205    -0.76200
O1498       O  0.29049740  0.52934727  0.46026515    -1.12400
O1499       O  0.36519523  0.57347084  0.46366243    -0.71600
C1500       C  0.38897460  0.56146742  0.48093198     0.99200
C1501       C  0.21608577  0.98667887  0.48826432     0.95600
Al1502     Al  0.26367569  0.50019216  0.44260042     1.55600
O1503       O  0.27865554  0.56049616  0.50109088    -0.76200
C1504       C  0.33478741  0.52812269  0.40838157     0.99700
C1505       C  0.34075845  0.96602299  0.46758453     0.94600
O1506       O  0.33420059  0.98224105  0.48556252    -0.81500
O1507       O  0.36077636  0.54254010  0.27407692    -0.81000
C1508       C  0.54594548  0.55648992  0.32796645     0.98400
O1509       O  0.50649762  0.57334174  0.32920656    -0.70100
O1510       O  0.48779364  0.58833768  0.28530783    -0.73700
Al1511     Al  0.44471434  0.57401967  0.30944425     1.49000
C1512       C  0.47778246  0.58610869  0.26349352     0.93600
O1513       O  0.49537690  0.51074438  0.26133048    -0.79900
O1514       O  0.42091992  0.98475267  0.31371229    -0.73500
Al1515     Al  0.42963451  0.52718118  0.26992871     1.90100
O1516       O  0.51788542  0.98436083  0.29374650    -0.72500
O1517       O  0.44624641  0.52541177  0.34802541    -0.72400
O1518       O  0.54042002  0.52969152  0.32218294    -0.78000
O1519       O  0.40040474  0.56362949  0.33499030    -0.76200
O1520       O  0.44981100  0.53665402  0.29942434    -1.12400
O1521       O  0.38356586  0.58412580  0.29115483    -0.71600
C1522       C  0.35224835  0.56952193  0.27847021     0.99200
C1523       C  0.52933693  0.98869427  0.27208942     0.95600
Al1524     Al  0.47570994  0.50904860  0.31912487     1.55600
O1525       O  0.45286400  0.56408373  0.25542606    -0.76200
C1526       C  0.41144170  0.54505814  0.35119813     0.99700
C1527       C  0.40388119  0.97572254  0.29399758     0.94600
O1528       O  0.41413107  0.98909130  0.27450004    -0.81500
O1529       O  0.09757588  0.75853303  0.72110670    -0.81000
C1530       C  0.93389991  0.70065626  0.67235649     0.98400
O1531       O  0.94261169  0.72830616  0.67138060    -0.70100
O1532       O  0.94718333  0.76114575  0.70850792    -0.73700
Al1533     Al  0.99714225  0.75264635  0.68465035     1.49000
C1534       C  0.95711993  0.76859656  0.72946396     0.93600
O1535       O  0.00054021  0.70021491  0.74381378    -0.79900
O1536       O  0.11200415  0.68528264  0.69707808    -0.73500
Al1537     Al  0.04799696  0.72965418  0.73149175     1.90100
O1538       O  0.01917052  0.66662201  0.71662304    -0.72500
O1539       O  0.06200779  0.70216124  0.65842077    -0.72400
O1540       O  0.96919488  0.68286374  0.67878564    -0.78000
O1541       O  0.04193266  0.74939551  0.65771764    -0.76200
O1542       O  0.02802107  0.72321725  0.70136402    -1.12400
O1543       O  0.04569366  0.78242301  0.69563876    -0.71600
C1544       C  0.08734497  0.78096142  0.70801470     0.99200
C1545       C  0.00144194  0.67341526  0.73691528     0.95600
Al1546     Al  0.03929330  0.68752012  0.68857563     1.55600
O1547       O  0.99885524  0.76019629  0.73925509    -0.76200
C1548       C  0.06478935  0.72754626  0.64869114     0.99700
C1549       C  0.12600475  0.68528639  0.71859643     0.94600
O1550       O  0.10207839  0.70123212  0.73315121    -0.81500
O1551       O  0.13459729  0.74366007  0.52086081    -0.81000
C1552       C  0.29863346  0.69904951  0.57797782     0.98400
O1553       O  0.27581211  0.72346504  0.58131246    -0.70100
O1554       O  0.27800515  0.75474578  0.54158116    -0.73700
Al1555     Al  0.22302240  0.74316595  0.56281137     1.49000
C1556       C  0.27422797  0.75890180  0.51933678     0.93600
O1557       O  0.24034521  0.68807319  0.50467477    -0.79900
O1558       O  0.13027777  0.66789714  0.55095558    -0.73500
Al1559     Al  0.18868885  0.71589908  0.51474126     1.90100
O1560       O  0.22471346  0.65494723  0.53285411    -0.72500
O1561       O  0.17925522  0.68794416  0.58984477    -0.72400
O1562       O  0.27472539  0.67775434  0.56837897    -0.78000
O1563       O  0.16923980  0.73613220  0.58626024    -0.76200
O1564       O  0.20460501  0.71152687  0.54568037    -1.12400
O1565       O  0.17644407  0.76976353  0.54763123    -0.71600
C1566       C  0.14042109  0.76713672  0.53252000     0.99200
C1567       C  0.24127033  0.66155669  0.51237607     0.95600
Al1568     Al  0.20267051  0.67541094  0.55955380     1.55600
O1569       O  0.23773251  0.74697230  0.50775641    -0.76200
C1570       C  0.16030366  0.71190038  0.59719467     0.99700
C1571       C  0.11423289  0.66913669  0.52951870     0.94600
O1572       O  0.13669543  0.68599071  0.51453003    -0.81500
O1573       O  0.86521841  0.54777921  0.77163603    -0.81000
C1574       C  0.05179501  0.56110286  0.82510259     0.98400
O1575       O  0.01138063  0.57701912  0.82659675    -0.70100
O1576       O  0.98798345  0.59678246  0.78366887    -0.73700
Al1577     Al  0.94877656  0.57756620  0.80770969     1.49000
C1578       C  0.97759634  0.59548955  0.76172930     0.93600
O1579       O  0.00017934  0.52064413  0.75407377    -0.79900
O1580       O  0.94164288  0.98279363  0.79512781    -0.73500
Al1581     Al  0.93461698  0.53491398  0.76506120     1.90100
O1582       O  0.03829116  0.00693093  0.78508347    -0.72500
O1583       O  0.95454084  0.52308446  0.84192232    -0.72400
O1584       O  0.04847378  0.53491318  0.81765474    -0.78000
O1585       O  0.90733956  0.56247425  0.83290295    -0.76200
O1586       O  0.95680277  0.54153274  0.79486907    -1.12400
O1587       O  0.88608124  0.58766594  0.79137603    -0.71600
C1588       C  0.85498364  0.57373103  0.77825033     0.99200
C1589       C  0.03072841  0.00171543  0.76338401     0.95600
Al1590     Al  0.98650546  0.51246333  0.81218610     1.55600
O1591       O  0.95436958  0.57334567  0.75300067    -0.76200
C1592       C  0.91833588  0.54113369  0.84682770     0.99700
C1593       C  0.90242363  0.98326863  0.78131571     0.94600
O1594       O  0.89067717  0.00617911  0.76913293    -0.81500
O1595       O  0.88524093  0.55696009  0.98122913    -0.81000
C1596       C  0.70370878  0.56765676  0.92358013     0.98400
O1597       O  0.74242225  0.58513153  0.92291562    -0.70100
O1598       O  0.75896033  0.60071363  0.96662032    -0.73700
Al1599     Al  0.80311213  0.58648599  0.94314419     1.49000
C1600       C  0.76655475  0.59794826  0.98868571     0.93600
O1601       O  0.75260917  0.52162373  0.99235615    -0.79900
O1602       O  0.82314833  0.99225218  0.93834505    -0.73500
Al1603     Al  0.81736487  0.53977823  0.98413077     1.90100
O1604       O  0.72561476  0.99706076  0.95733533    -0.72500
O1605       O  0.80381608  0.53806667  0.90577324    -0.72400
O1606       O  0.70920114  0.54107278  0.93063262    -0.78000
O1607       O  0.84868253  0.57637904  0.91838282    -0.76200
O1608       O  0.79839882  0.54912440  0.95416636    -1.12400
O1609       O  0.86313578  0.59723526  0.96121663    -0.71600
C1610       C  0.89355201  0.58373426  0.97528379     0.99200
C1611       C  0.71533654  0.00165589  0.97896019     0.95600
Al1612     Al  0.77416400  0.52125673  0.93479734     1.55600
O1613       O  0.79068213  0.57584513  0.99755689    -0.76200
C1614       C  0.83863964  0.55780491  0.90253970     0.99700
C1615       C  0.84102425  0.98440895  0.95852150     0.94600
O1616       O  0.83278653  0.99980194  0.97680748    -0.81500
O1617       O  0.86085146  0.84421673  0.97371872    -0.81000
C1618       C  0.04973648  0.82141587  0.92448889     0.98400
O1619       O  0.00801131  0.80650327  0.92245469    -0.70100
O1620       O  0.98299537  0.79332931  0.96645029    -0.73700
Al1621     Al  0.94436978  0.80907065  0.94099927     1.49000
C1622       C  0.97214953  0.79710795  0.98813604     0.93600
O1623       O  0.99642870  0.87274577  0.98932531    -0.79900
O1624       O  0.92843474  0.89771499  0.92980889    -0.73500
Al1625     Al  0.93067686  0.85761724  0.97912900     1.90100
O1626       O  0.01899810  0.89447109  0.95565348    -0.72500
O1627       O  0.96057617  0.85495850  0.90170976    -0.72400
O1628       O  0.04794311  0.84823700  0.93072286    -0.78000
O1629       O  0.90340323  0.82182942  0.91447903    -0.76200
O1630       O  0.95381341  0.84624567  0.95061890    -1.12400
O1631       O  0.88107297  0.80149692  0.95813603    -0.71600
C1632       C  0.85027082  0.81734437  0.96996051     0.99200
C1633       C  0.02373856  0.89148388  0.97797884     0.95600
Al1634     Al  0.98640231  0.87174784  0.93108689     1.55600
O1635       O  0.94913436  0.82046986  0.99508043    -0.76200
C1636       C  0.92110503  0.83858261  0.89810475     0.99700
C1637       C  0.90569042  0.90886108  0.94750991     0.94600
O1638       O  0.90833982  0.89666407  0.96808008    -0.81500
O1639       O  0.87377739  0.84107709  0.76735755    -0.81000
C1640       C  0.69058836  0.82814737  0.82253191     0.98400
O1641       O  0.73101589  0.81214571  0.82526370    -0.70100
O1642       O  0.75457136  0.79439578  0.78278523    -0.67300
Al1643     Al  0.79454897  0.81178069  0.80652975     1.49000
C1644       C  0.75850870  0.79788201  0.76052951     0.93600
O1645       O  0.74074902  0.87532282  0.75560504    -0.79900
O1646       O  0.82043084  0.89845361  0.81193006    -0.73500
Al1647     Al  0.80553021  0.85735666  0.76445506     1.90100
O1648       O  0.72795739  0.90029980  0.78806499    -0.72500
O1649       O  0.78252777  0.85951882  0.84323131    -0.72400
O1650       O  0.69439587  0.85476119  0.81503857    -0.78000
O1651       O  0.83750526  0.82540076  0.83176040    -0.76200
O1652       O  0.78629681  0.84826708  0.79433372    -1.12400
O1653       O  0.85686844  0.80216278  0.78992824    -0.71600
C1654       C  0.88543052  0.81550388  0.77501099     0.99200
C1655       C  0.72014267  0.89690304  0.76607809     0.95600
Al1656     Al  0.75851207  0.87590694  0.81298052     1.55600
O1657       O  0.77926331  0.82092733  0.75128104    -0.76200
C1658       C  0.82106427  0.84269584  0.84752277     0.99700
C1659       C  0.84277898  0.90741501  0.79306225     0.94600
O1660       O  0.83526123  0.89513580  0.77307906    -0.81500
O1661       O  0.08848119  0.62513848  0.03039993    -0.81000
C1662       C  0.93653027  0.68954335  0.07908067     0.98400
O1663       O  0.94373039  0.66285802  0.07322539    -0.70100
O1664       O  0.97793934  0.62002466  0.04559664    -0.73700
Al1665     Al  0.00993828  0.64320664  0.07011239     1.49000
C1666       C  0.97180562  0.62340683  0.02338884     0.93600
O1667       O  0.03181311  0.69907699  0.00680756    -0.79900
O1668       O  0.09893125  0.72089988  0.04419547    -0.73500
Al1669     Al  0.05792383  0.66303255  0.02142513     1.90100
O1670       O  0.99495763  0.72347483  0.03615353    -0.72500
O1671       O  0.08086842  0.69912913  0.08658140    -0.72400
O1672       O  0.97487835  0.70716290  0.08016386    -0.78000
O1673       O  0.03868403  0.65929071  0.09909506    -0.76200
O1674       O  0.03517932  0.67170182  0.05071871    -1.12400
O1675       O  0.07195565  0.62049348  0.06880019    -0.71600
C1676       C  0.09474328  0.61180385  0.05025817     0.99200
C1677       C  0.00572578  0.72094386  0.01435669     0.95600
Al1678     Al  0.03728630  0.70919291  0.06102400     1.55600
O1679       O  0.99474428  0.64419904  0.01224599    -0.76200
C1680       C  0.07342304  0.67903035  0.10196773     0.99700
C1681       C  0.13200859  0.70765916  0.03160575     0.94600
O1682       O  0.12498991  0.68089702  0.02584187    -0.81500
O1683       O  0.13891018  0.62570633  0.22608239    -0.81000
C1684       C  0.29820260  0.68541618  0.17432452     0.98400
O1685       O  0.28710183  0.65815585  0.17239344    -0.70100
O1686       O  0.28930414  0.62610220  0.21144448    -0.73700
Al1687     Al  0.23587307  0.63327437  0.18829038     1.49000
C1688       C  0.28114871  0.61897616  0.23293220     0.93600
O1689       O  0.23348103  0.68584804  0.24636233    -0.79900
O1690       O  0.12140149  0.69956352  0.19956439    -0.73500
Al1691     Al  0.18724914  0.65560295  0.23511090     1.90100
O1692       O  0.21222375  0.71919022  0.21872645    -0.72500
O1693       O  0.17363015  0.68417915  0.16150568    -0.72400
O1694       O  0.26499069  0.70332253  0.18223535    -0.78000
O1695       O  0.18586810  0.63604472  0.16299939    -0.76200
O1696       O  0.20588332  0.66241613  0.20481280    -1.12400
O1697       O  0.19167692  0.60239581  0.20140092    -0.71600
C1698       C  0.15052344  0.60311930  0.21402916     0.99200
C1699       C  0.23134240  0.71258212  0.23879948     0.95600
Al1700     Al  0.19435849  0.69826568  0.19142312     1.55600
O1701       O  0.23907564  0.62628111  0.24291384    -0.76200
C1702       C  0.16529487  0.65869133  0.15341986     0.99700
C1703       C  0.10635501  0.69830825  0.22097802     0.94600
O1704       O  0.13123374  0.68277777  0.23592124    -0.81500
O1705       O  0.36060125  0.81883129  0.26196971    -0.81000
C1706       C  0.19481754  0.82646453  0.32532919     0.98400
O1707       O  0.22287654  0.80600015  0.31691337    -0.70100
O1708       O  0.27447719  0.78461389  0.28131445    -0.73700
Al1709     Al  0.29556247  0.80666907  0.30741672     1.49000
C1710       C  0.25744635  0.79045300  0.26078696     0.93600
O1711       O  0.25530176  0.87560127  0.25365355    -0.79900
O1712       O  0.30787358  0.90109076  0.29379036    -0.73500
Al1713     Al  0.30633356  0.84667272  0.26182087     1.90100
O1714       O  0.20960405  0.88049691  0.28639124    -0.72500
O1715       O  0.31681502  0.87022424  0.33298681    -0.72400
O1716       O  0.21332679  0.85218957  0.32734405    -0.78000
O1717       O  0.31965244  0.82176646  0.33698476    -0.76200
O1718       O  0.28909883  0.84212589  0.29272122    -1.12400
O1719       O  0.36835238  0.80124944  0.29838997    -0.71600
C1720       C  0.38360504  0.80235702  0.27684657     0.99200
C1721       C  0.21574563  0.88522969  0.26432513     0.95600
Al1722     Al  0.26424475  0.87315989  0.30877219     1.55600
O1723       O  0.25832641  0.81662912  0.25216681    -0.76200
C1724       C  0.33280409  0.84727264  0.34390174     0.99700
C1725       C  0.34672159  0.90016922  0.28002259     0.94600
O1726       O  0.35668882  0.87714203  0.26817625    -0.81500
O1727       O  0.36890061  0.82418578  0.47798118    -0.81000
C1728       C  0.55033474  0.81073797  0.42078958     0.98400
O1729       O  0.51054789  0.79396832  0.42015117    -0.70100
O1730       O  0.48913861  0.77596572  0.46349367    -0.73700
Al1731     Al  0.44815754  0.79359724  0.43978934     1.49000
C1732       C  0.48117600  0.77841493  0.48548625     0.93600
O1733       O  0.50471077  0.85478600  0.48975044    -0.79900
O1734       O  0.42325722  0.88237613  0.43468396    -0.73500
Al1735     Al  0.43815284  0.83887802  0.48116143     1.90100
O1736       O  0.51906631  0.87996287  0.45669551    -0.72500
O1737       O  0.45106230  0.84460283  0.40255154    -0.72400
O1738       O  0.54596289  0.83731346  0.42736332    -0.78000
O1739       O  0.40453194  0.80649000  0.41492652    -0.76200
O1740       O  0.45643254  0.83032457  0.45112353    -1.12400
O1741       O  0.38593542  0.78427973  0.45739318    -0.71600
C1742       C  0.35720272  0.79824240  0.47164828     0.99200
C1743       C  0.52802951  0.87544579  0.47866607     0.95600
Al1744     Al  0.48282344  0.85858675  0.43192261     1.55600
O1745       O  0.46065100  0.80143695  0.49417118    -0.76200
C1746       C  0.41430041  0.82611803  0.39943790     0.99700
C1747       C  0.40354621  0.89148230  0.45374792     0.94600
O1748       O  0.41138903  0.87808526  0.47348659    -0.81500
O1749       O  0.63925135  0.62936477  0.73500725    -0.81000
C1750       C  0.78580846  0.69098010  0.67644515     0.98400
O1751       O  0.78041549  0.66311450  0.67748377    -0.70100
O1752       O  0.78846915  0.63598014  0.71811144    -0.73700
Al1753     Al  0.73386607  0.63769748  0.69520950     1.49000
C1754       C  0.78135914  0.62887588  0.73957204     0.93600
O1755       O  0.72837897  0.69407919  0.74917197    -0.79900
O1756       O  0.60902085  0.69927086  0.70519857    -0.73500
Al1757     Al  0.68428390  0.66179231  0.74113165     1.90100
O1758       O  0.70073109  0.72496066  0.72067655    -0.72500
O1759       O  0.65827835  0.68100302  0.66631353    -0.72400
O1760       O  0.74936555  0.70771859  0.68301705    -0.78000
O1761       O  0.68522999  0.63490708  0.66990646    -0.76200
O1762       O  0.69937097  0.66656148  0.71010253    -1.12400
O1763       O  0.69394235  0.60668253  0.71059492    -0.71600
C1764       C  0.65389206  0.60636797  0.72409034     0.99200
C1765       C  0.72388324  0.72010132  0.74034544     0.95600
Al1766     Al  0.68095555  0.70017202  0.69484243     1.55600
O1767       O  0.73881695  0.63470412  0.74961719    -0.76200
C1768       C  0.65928523  0.65452359  0.65899036     0.99700
C1769       C  0.59737116  0.70033773  0.72704065     0.94600
O1770       O  0.62590254  0.68734605  0.74210676    -0.81500
O1771       O  0.60693115  0.61977110  0.52851616    -0.81000
C1772       C  0.43814813  0.66890351  0.57956849     0.98400
O1773       O  0.46096400  0.64494015  0.58507574    -0.70100
O1774       O  0.46464603  0.60906626  0.54890199    -0.73700
Al1775     Al  0.51681951  0.62432415  0.56982513     1.49000
C1776       C  0.46892078  0.60367705  0.52696529     0.93600
O1777       O  0.50200138  0.67397449  0.50606883    -0.79900
O1778       O  0.60741792  0.69908658  0.55182229    -0.73500
Al1779     Al  0.55297282  0.64700608  0.51950124     1.90100
O1780       O  0.51412631  0.70903415  0.53205176    -0.72500
O1781       O  0.55605212  0.68318270  0.59181483    -0.72400
O1782       O  0.46233796  0.68943654  0.56856743    -0.78000
O1783       O  0.56738309  0.63506886  0.59390619    -0.76200
O1784       O  0.53510296  0.65425505  0.54988363    -1.12400
O1785       O  0.56641817  0.59708448  0.55822822    -0.71600
C1786       C  0.60196127  0.59789186  0.54268483     0.99200
C1787       C  0.49994563  0.70103401  0.51181378     0.95600
Al1788     Al  0.53480227  0.69168876  0.56037394     1.55600
O1789       O  0.50480392  0.61548436  0.51468877    -0.76200
C1790       C  0.57374085  0.66067025  0.60245775     0.99700
C1791       C  0.62427874  0.69598609  0.53065177     0.94600
O1792       O  0.60427572  0.67693692  0.51721509    -0.81500
C1793       C  0.63010812  0.64609185  0.63721096    -0.15600
C1794       C  0.60169385  0.66619330  0.62502349    -0.30800
H1795       H  0.63273628  0.62339433  0.63095693     0.13400
H1796       H  0.60014378  0.68887218  0.63144013     0.14000
C1797       C  0.49306882  0.75348417  0.50130063    -0.15600
C1798       C  0.48588913  0.72488297  0.49483179    -0.30800
H1799       H  0.50458316  0.75904368  0.51934900     0.13400
H1800       H  0.47260581  0.71940792  0.47702155     0.14000
C1801       C  0.36774352  0.84999817  0.36495282    -0.15600
C1802       C  0.38278669  0.82565442  0.37740412    -0.30800
H1803       H  0.38049631  0.87190508  0.37044694     0.13400
H1804       H  0.36749807  0.80405718  0.37242562     0.14000
C1805       C  0.24881000  0.73719592  0.25349316    -0.15600
C1806       C  0.23913287  0.76564837  0.24660449    -0.30800
H1807       H  0.26883733  0.73202434  0.27013598     0.13400
H1808       H  0.21945338  0.77082137  0.22987534     0.14000
C1809       C  0.12974538  0.65572295  0.13279369    -0.15600
C1810       C  0.10552814  0.67982293  0.12357064    -0.30800
H1811       H  0.12332673  0.63395491  0.12516575     0.13400
H1812       H  0.11403984  0.70172577  0.13052072     0.14000
C1813       C  0.74109929  0.77353442  0.74541386    -0.15600
C1814       C  0.74333288  0.74536772  0.75386713    -0.30800
H1815       H  0.72859890  0.77842888  0.72726013     0.13400
H1816       H  0.75873561  0.74075044  0.77161576     0.14000
C1817       C  0.99161910  0.74499089  0.99768195    -0.15600
C1818       C  0.98328007  0.77291029  0.00523081    -0.30800
H1819       H  0.99238854  0.74023965  0.97873506     0.13400
H1820       H  0.98271074  0.77775941  0.02415892     0.14000
C1821       C  0.89699155  0.83840616  0.87428998    -0.15600
C1822       C  0.84538097  0.84261795  0.87135902    -0.30800
H1823       H  0.92240353  0.83660058  0.85882271     0.13400
H1824       H  0.82092240  0.84743477  0.88669727     0.14000
C1825       C  0.87015666  0.95629107  0.96160527    -0.15600
C1826       C  0.87707412  0.93702245  0.94385176    -0.30800
H1827       H  0.88501480  0.95085209  0.97931087     0.13400
H1828       H  0.86390844  0.94270546  0.92592394     0.14000
C1829       C  0.93527726  0.60107759  0.98670850    -0.15600
C1830       C  0.93779280  0.60225404  0.01065791    -0.30800
H1831       H  0.95743803  0.61683183  0.97582464     0.13400
H1832       H  0.91332183  0.58741549  0.02136734     0.14000
C1833       C  0.87639875  0.93347475  0.79446902    -0.15600
C1834       C  0.87080687  0.95627248  0.77903240    -0.30800
H1835       H  0.90227235  0.93522686  0.80977125     0.13400
H1836       H  0.84173609  0.95527088  0.76489888     0.14000
C1837       C  0.88868147  0.53721275  0.86919543    -0.15600
C1838       C  0.86649919  0.56055815  0.87975100    -0.30800
H1839       H  0.88699329  0.51532491  0.87765178     0.13400
H1840       H  0.87259572  0.58282644  0.87245614     0.14000
C1841       C  0.81119143  0.58998666  0.76754607    -0.15600
C1842       C  0.82229814  0.61294906  0.75272855    -0.30800
H1843       H  0.77135982  0.58188391  0.76978832     0.13400
H1844       H  0.86285945  0.61854525  0.74871899     0.14000
C1845       C  0.31246394  0.77840549  0.50689127    -0.15600
C1846       C  0.31304694  0.78240891  0.48299908    -0.30800
H1847       H  0.34235339  0.78904585  0.51763482     0.13400
H1848       H  0.28609294  0.77017430  0.47181796     0.14000
C1849       C  0.35541316  0.69707192  0.58308078    -0.15600
C1850       C  0.38111120  0.67109933  0.58394345    -0.30800
H1851       H  0.37752500  0.71773407  0.58311637     0.13400
H1852       H  0.35900778  0.65045428  0.58498525     0.14000
C1853       C  0.98582153  0.64893151  0.75306230    -0.15600
C1854       C  0.99035892  0.62054674  0.74597820    -0.30800
H1855       H  0.97305449  0.65392362  0.77105624     0.13400
H1856       H  0.00058176  0.61547231  0.72767038     0.14000
C1857       C  0.12776867  0.71009070  0.61892876    -0.15600
C1858       C  0.09643206  0.73187690  0.62671549    -0.30800
H1859       H  0.12858527  0.68896373  0.62860488     0.13400
H1860       H  0.09502228  0.75313614  0.61728000     0.14000
C1861       C  0.92818261  0.79896186  0.76381432    -0.15600
C1862       C  0.91978110  0.78785635  0.74199211    -0.30800
H1863       H  0.96281733  0.79307078  0.77406051     0.13400
H1864       H  0.88342168  0.79322330  0.73277528     0.14000
C1865       C  0.88090720  0.68819493  0.66810773    -0.15600
C1866       C  0.83696708  0.70458959  0.66974500    -0.30800
H1867       H  0.87761222  0.66409413  0.66833498     0.13400
H1868       H  0.84015089  0.72865082  0.67055702     0.14000
C1869       C  0.37239256  0.94880600  0.29406841    -0.15600
C1870       C  0.37928871  0.92705022  0.27812715    -0.30800
H1871       H  0.34574274  0.94578259  0.30904025     0.13400
H1872       H  0.40880506  0.92900913  0.26421737     0.14000
C1873       C  0.32095164  0.60180388  0.24636064    -0.15600
C1874       C  0.30967899  0.58547584  0.26611060    -0.30800
H1875       H  0.36074909  0.60185241  0.23941748     0.13400
H1876       H  0.26990646  0.58374731  0.27287127     0.14000
C1877       C  0.37257185  0.91877015  0.45234671    -0.15600
C1878       C  0.36945159  0.93785341  0.47040143    -0.30800
H1879       H  0.35548600  0.92449989  0.43512319     0.13400
H1880       H  0.38790739  0.93264094  0.48742427     0.14000
C1881       C  0.24710698  0.60887601  0.50429802    -0.15600
C1882       C  0.25739488  0.63705103  0.49717615    -0.30800
H1883       H  0.23023403  0.60400039  0.52172745     0.13400
H1884       H  0.27554486  0.64184541  0.48000428     0.14000
C1885       C  0.36465294  0.52421659  0.38611766    -0.15600
C1886       C  0.38472190  0.54772163  0.37430914    -0.30800
H1887       H  0.36709829  0.50219882  0.37847100     0.13400
H1888       H  0.37737197  0.56999412  0.38078754     0.14000
C1889       C  0.43168007  0.58313005  0.51553975    -0.15600
C1890       C  0.43262207  0.57764152  0.49193091    -0.30800
H1891       H  0.40113966  0.57323407  0.52662501     0.13400
H1892       H  0.46046430  0.58908714  0.48035521     0.14000
C1893       C  0.49238793  0.61067553  0.24771450    -0.15600
C1894       C  0.49329072  0.63874214  0.25588694    -0.30800
H1895       H  0.50073841  0.60586989  0.22916294     0.13400
H1896       H  0.48175879  0.64354285  0.27409288     0.14000
C1897       C  0.42459078  0.77554886  0.24400790    -0.15600
C1898       C  0.42550345  0.78282588  0.26746835    -0.30800
H1899       H  0.39298349  0.78379191  0.23273739     0.13400
H1900       H  0.45507080  0.77375006  0.27942476     0.14000
C1901       C  0.35182130  0.69677858  0.16931904    -0.15600
C1902       C  0.39404443  0.67892033  0.17052482    -0.30800
H1903       H  0.35746534  0.72073303  0.16935397     0.13400
H1904       H  0.38819185  0.65502226  0.17204298     0.14000
C1905       C  0.75199456  0.65040142  0.99572627    -0.15600
C1906       C  0.75009894  0.62208136  0.00392783    -0.30800
H1907       H  0.76678543  0.65554546  0.97794731     0.13400
H1908       H  0.73823680  0.61675703  0.02211111     0.14000
C1909       C  0.62761329  0.73454339  0.11690454    -0.15600
C1910       C  0.60334885  0.71189670  0.12826338    -0.30800
H1911       H  0.62761449  0.75654103  0.12464192     0.13400
H1912       H  0.60571666  0.68985498  0.12063448     0.14000
C1913       C  0.81677210  0.78511754  0.00149227    -0.15600
C1914       C  0.80629618  0.80273789  0.98239449    -0.30800
H1915       H  0.85678353  0.78353715  0.00803498     0.13400
H1916       H  0.76649018  0.80615860  0.97613269     0.14000
C1917       C  0.83924211  0.68547054  0.08031664    -0.15600
C1918       C  0.88311217  0.70173446  0.08288261    -0.30800
H1919       H  0.84251506  0.66152134  0.07849624     0.13400
H1920       H  0.87985223  0.72570929  0.08451043     0.14000
C1921       C  0.18218335  0.72600214  0.99763246    -0.15600
C1922       C  0.17561506  0.72523243  0.02139163    -0.30800
H1923       H  0.15882929  0.71116178  0.98676938     0.13400
H1924       H  0.19628408  0.74090685  0.03254514     0.14000
C1925       C  0.14560998  0.82188565  0.91926782    -0.15600
C1926       C  0.10066154  0.80649215  0.92113269    -0.30800
H1927       H  0.14431588  0.84592045  0.91700512     0.13400
H1928       H  0.10162003  0.78238553  0.92269417     0.14000
C1929       C  0.38068369  0.81000173  0.86883269    -0.15600
C1930       C  0.36102863  0.78639836  0.88067767    -0.30800
H1931       H  0.37269258  0.83230679  0.87507648     0.13400
H1932       H  0.36440086  0.76433243  0.87318346     0.14000
C1933       C  0.55421476  0.71940344  0.73588354    -0.15600
C1934       C  0.55163937  0.72573630  0.75939753    -0.30800
H1935       H  0.52782135  0.73010506  0.72323718     0.13400
H1936       H  0.57829021  0.71473359  0.77178728     0.14000
C1937       C  0.59470908  0.83070488  0.82644938    -0.15600
C1938       C  0.63876662  0.81452679  0.82670299    -0.30800
H1939       H  0.59712995  0.85484042  0.82619603     0.13400
H1940       H  0.63651183  0.79039948  0.82753711     0.14000
C1941       C  0.61473404  0.54457440  0.54059369    -0.15600
C1942       C  0.63608857  0.57192092  0.54073654    -0.30800
H1943       H  0.57243562  0.54186379  0.53990899     0.13400
H1944       H  0.67815748  0.57501510  0.53906312     0.14000
C1945       C  0.57167296  0.89819908  0.51481301    -0.15600
C1946       C  0.56600678  0.89524866  0.49082902    -0.30800
H1947       H  0.54851590  0.88462192  0.52705689     0.13400
H1948       H  0.58983925  0.90898948  0.47895528     0.14000
C1949       C  0.63506859  0.55489310  0.71393695    -0.15600
C1950       C  0.62448803  0.57852337  0.72734964    -0.30800
H1951       H  0.66450839  0.55624404  0.69994863     0.13400
H1952       H  0.59223768  0.57776007  0.74003107     0.14000
C1953       C  0.50398970  0.89164926  0.74813592    -0.15600
C1954       C  0.49179817  0.86470599  0.73978590    -0.30800
H1955       H  0.50538821  0.89551552  0.76722872     0.13400
H1956       H  0.48987033  0.86067440  0.72074201     0.14000
C1957       C  0.60022445  0.97867652  0.62525988    -0.15600
C1958       C  0.63288865  0.95771806  0.61706706    -0.30800
H1959       H  0.59274798  0.99869678  0.61473606     0.13400
H1960       H  0.63762228  0.93715259  0.62727274     0.14000
C1961       C  0.68313494  0.92049028  0.72898189    -0.15600
C1962       C  0.68686410  0.91881402  0.75300140    -0.30800
H1963       H  0.70414911  0.90461049  0.71815666     0.13400
H1964       H  0.66363102  0.93388080  0.76368136     0.14000
C1965       C  0.74379228  0.85803964  0.49877216    -0.15600
C1966       C  0.75672459  0.88638068  0.49266093    -0.30800
H1967       H  0.72132680  0.85319209  0.51484416     0.13400
H1968       H  0.77850408  0.89146625  0.47645004     0.14000
C1969       C  0.66456890  0.72104514  0.49597177    -0.15600
C1970       C  0.66484333  0.71578450  0.51994512    -0.30800
H1971       H  0.63370297  0.71145376  0.48516717     0.13400
H1972       H  0.69365050  0.72625191  0.53132658     0.14000
C1973       C  0.64651896  0.81480375  0.41647927    -0.15600
C1974       C  0.60276182  0.79809816  0.41568444    -0.30800
H1975       H  0.64289898  0.83882669  0.41754866     0.13400
H1976       H  0.60595849  0.77404859  0.41482449     0.14000
C1977       C  0.88312431  0.79192256  0.36804031    -0.15600
C1978       C  0.86216370  0.76832628  0.37985183    -0.30800
H1979       H  0.87425659  0.81418037  0.37414301     0.13400
H1980       H  0.86835238  0.74599452  0.37330458     0.14000
C1981       C  0.05549563  0.71929746  0.25353006    -0.15600
C1982       C  0.06347353  0.71742387  0.22979499    -0.30800
H1983       H  0.07682490  0.70462134  0.26564952     0.13400
H1984       H  0.04193632  0.73158384  0.21738809     0.14000
C1985       C  0.11352681  0.79586481  0.32785371    -0.15600
C1986       C  0.13809791  0.82197143  0.33088803    -0.30800
H1987       H  0.13716042  0.77631209  0.32437040     0.13400
H1988       H  0.11478849  0.84166907  0.33425880     0.14000
C1989       C  0.13420650  0.54936732  0.21597295    -0.15600
C1990       C  0.11550289  0.57723246  0.21453892    -0.30800
H1991       H  0.17586917  0.54546361  0.21844723     0.13400
H1992       H  0.07347752  0.58110837  0.21449169     0.14000
C1993       C  0.00733123  0.89297926  0.25505441    -0.15600
C1994       C  0.01442415  0.86473228  0.24772190    -0.30800
H1995       H  0.99123113  0.89752333  0.27257338     0.13400
H1996       H  0.02784363  0.86007122  0.22976635     0.14000
C1997       C  0.17741771  0.90347117  0.25131620    -0.15600
C1998       C  0.18282056  0.91243507  0.22825565    -0.30800
H1999       H  0.14382377  0.91078116  0.26162497     0.13400
H2000       H  0.21446969  0.90433177  0.21716353     0.14000
C2001       C  0.12441875  0.56280242  0.03665863    -0.15600
C2002       C  0.12826193  0.58531663  0.05210226    -0.30800
H2003       H  0.09642921  0.56415364  0.02208250     0.13400
H2004       H  0.15328909  0.58314891  0.06769907     0.14000
C2005       C  0.25106786  0.89628464  0.99300460    -0.15600
C2006       C  0.24685717  0.86790941  0.00086384    -0.30800
H2007       H  0.26604163  0.90126079  0.97523323     0.13400
H2008       H  0.23431709  0.86285571  0.01900295     0.14000
C2009       C  0.10259904  0.96290944  0.12403480    -0.15600
C2010       C  0.13384498  0.98408199  0.11458699    -0.30800
H2011       H  0.10100637  0.94136531  0.11552820     0.13400
H2012       H  0.13723469  0.00548054  0.12318985     0.14000
C2013       C  0.06197527  0.91067977  0.99012636    -0.15600
C2014       C  0.06427342  0.91546568  0.01390597    -0.30800
H2015       H  0.08930788  0.92221808  0.97832625     0.13400
H2016       H  0.03767261  0.90404883  0.02609253     0.14000
C2017       C  0.10564258  0.79237035  0.52872869    -0.15600
C2018       C  0.12549575  0.82004486  0.52828199    -0.30800
H2019       H  0.06365347  0.78851054  0.52785796     0.13400
H2020       H  0.16755635  0.82372108  0.52734223     0.14000
C2021       C  0.16810282  0.96405077  0.52366196    -0.15600
C2022       C  0.17453827  0.96900504  0.49996694    -0.30800
H2023       H  0.19277603  0.97505534  0.53659626     0.13400
H2024       H  0.14898421  0.95768758  0.48752899     0.14000
C2025       C  0.92142919  0.84179285  0.50392471    -0.15600
C2026       C  0.92780841  0.83162853  0.48155020    -0.30800
H2027       H  0.88658894  0.83572427  0.51407804     0.13400
H2028       H  0.96106990  0.83830707  0.47062620     0.14000
C2029       C  0.85401452  0.94231748  0.57985238    -0.15600
C2030       C  0.87891472  0.91609723  0.58063177    -0.30800
H2031       H  0.87678115  0.96272624  0.58049155     0.13400
H2032       H  0.85621404  0.89564052  0.58092195     0.14000
C2033       C  0.12438914  0.80601912  0.70738711    -0.15600
C2034       C  0.10737579  0.83421463  0.70682090    -0.30800
H2035       H  0.16602687  0.80137313  0.70896467     0.13400
H2036       H  0.06565123  0.83883693  0.70781834     0.14000
C2037       C  0.13076386  0.91650298  0.62576469    -0.15600
C2038       C  0.10986700  0.89187384  0.61640355    -0.30800
H2039       H  0.12121362  0.93808220  0.61791832     0.13400
H2040       H  0.11886655  0.87005690  0.62389383     0.14000
C2041       C  0.06192797  0.97356040  0.72801745    -0.15600
C2042       C  0.06900915  0.98368014  0.75041806    -0.30800
H2043       H  0.02882657  0.98069347  0.71722128     0.13400
H2044       H  0.10384470  0.97720147  0.76036285     0.14000
C2045       C  0.31613348  0.85715139  0.74041130    -0.15600
C2046       C  0.30608823  0.84201208  0.76082338    -0.30800
H2047       H  0.35554794  0.85697043  0.73302205     0.13400
H2048       H  0.26678012  0.84061048  0.76817106     0.14000
C2049       C  0.34549709  0.95654474  0.66709359    -0.15600
C2050       C  0.38965168  0.94027515  0.66626977    -0.30800
H2051       H  0.34879425  0.98046547  0.66919992     0.13400
H2052       H  0.38712426  0.91632304  0.66429411     0.14000
C2053       C  0.37172198  0.68063840  0.94669295    -0.15600
C2054       C  0.37178803  0.70052773  0.96422602    -0.30800
H2055       H  0.35237159  0.68560547  0.92983133     0.13400
H2056       H  0.39274029  0.69587940  0.98074801     0.14000
C2057       C  0.56233576  0.66705384  0.01136314    -0.15600
C2058       C  0.56118037  0.66273626  0.98742618    -0.30800
H2059       H  0.53673414  0.65424470  0.02311121     0.13400
H2060       H  0.58680593  0.67588283  0.97590970     0.14000
C2061       C  0.60866398  0.56235187  0.91674036    -0.15600
C2062       C  0.65144892  0.57965257  0.91780365    -0.30800
H2063       H  0.61277398  0.53830452  0.91671765     0.13400
H2064       H  0.64728728  0.60370254  0.91726225     0.14000
C2065       C  0.32093022  0.54316213  0.98196024    -0.15600
C2066       C  0.32492806  0.53863001  0.00575650    -0.30800
H2067       H  0.29084899  0.53201982  0.97172025     0.13400
H2068       H  0.35754637  0.54846440  0.01530787     0.14000
C2069       C  0.36179453  0.70758590  0.80012167    -0.15600
C2070       C  0.35643215  0.68943077  0.78161258    -0.30800
H2071       H  0.34740793  0.70122377  0.81773069     0.13400
H2072       H  0.37245451  0.69550739  0.76422722     0.14000
C2073       C  0.24463125  0.51962734  0.74708023    -0.15600
C2074       C  0.24467033  0.99108230  0.75028313    -0.30800
H2075       H  0.23409960  0.52432524  0.72862619     0.13400
H2076       H  0.25862923  0.98588966  0.76817125     0.14000
C2077       C  0.36282248  0.60351060  0.86446084    -0.15600
C2078       C  0.39740405  0.58324195  0.87238345    -0.30800
H2079       H  0.35435527  0.62283829  0.87521242     0.13400
H2080       H  0.40305536  0.56273387  0.86272585     0.14000
C2081       C  0.16644576  0.65752384  0.75147829    -0.15600
C2082       C  0.16651235  0.66461933  0.72795279    -0.30800
H2083       H  0.13803268  0.66786012  0.76318261     0.13400
H2084       H  0.19442995  0.65455993  0.71588790     0.14000
C2085       C  0.10331176  0.57484821  0.83001095    -0.15600
C2086       C  0.14885893  0.55982498  0.82912376    -0.30800
H2087       H  0.10416573  0.59895773  0.83108976     0.13400
H2088       H  0.14860891  0.53568098  0.82872631     0.14000
C2089       C  0.43966162  0.52645349  0.75680838    -0.15600
C2090       C  0.43008495  0.55584073  0.75536902    -0.30800
H2091       H  0.41990491  0.51303279  0.77035941     0.13400
H2092       H  0.45065755  0.56934130  0.74212339     0.14000
C2093       C  0.61343786  0.82615085  0.20377907    -0.15600
C2094       C  0.62484151  0.80144459  0.21656865    -0.30800
H2095       H  0.58347275  0.82550861  0.19005016     0.13400
H2096       H  0.65672688  0.80180730  0.22939737     0.14000
C2097       C  0.56482507  0.96752820  0.26014614    -0.15600
C2098       C  0.56778060  0.96540162  0.23624924    -0.30800
H2099       H  0.58909905  0.95317724  0.27131160     0.13400
H2100       H  0.54521179  0.98049076  0.22498335     0.14000
C2101       C  0.82648473  0.84761902  0.26394644    -0.15600
C2102       C  0.81191648  0.84541033  0.24076977    -0.30800
H2103       H  0.81154569  0.86570249  0.27461207     0.13400
H2104       H  0.82936311  0.82816810  0.22996512     0.14000
C2105       C  0.89489042  0.92869229  0.17062430    -0.15600
C2106       C  0.85153258  0.94514689  0.16720130    -0.30800
H2107       H  0.89060641  0.90500973  0.17430117     0.13400
H2108       H  0.85522648  0.96896612  0.16411019     0.14000
C2109       C  0.60946891  0.80780446  0.03278774    -0.15600
C2110       C  0.62811702  0.83566593  0.03268953    -0.30800
H2111       H  0.56754651  0.80376900  0.03174081     0.13400
H2112       H  0.66998966  0.83977263  0.03133133     0.14000
C2113       C  0.50507618  0.52058712  0.99986014    -0.15600
C2114       C  0.48745522  0.99415427  0.99360489    -0.30800
H2115       H  0.51438703  0.52666258  0.01805848     0.13400
H2116       H  0.47343626  0.98911666  0.97581636     0.14000
C2117       C  0.62912107  0.92847850  0.12965995    -0.15600
C2118       C  0.61208816  0.90634941  0.11584775    -0.30800
H2119       H  0.61660371  0.95107972  0.12558586     0.13400
H2120       H  0.62136047  0.88346543  0.12066801     0.14000
C2121       C  0.67438868  0.97655295  0.01454015    -0.15600
C2122       C  0.67655637  0.98215276  0.99078789    -0.30800
H2123       H  0.70078281  0.98776243  0.02664800     0.13400
H2124       H  0.67132470  0.46593932  0.98223695     0.14000
C2125       C  0.42256779  0.85538813  0.00403750    -0.15600
C2126       C  0.43217813  0.84112431  0.98356156    -0.30800
H2127       H  0.38503397  0.85211336  0.01291150     0.13400
H2128       H  0.46876628  0.84414019  0.97393752     0.14000
C2129       C  0.39240106  0.95254557  0.07966661    -0.15600
C2130       C  0.34896674  0.93550374  0.07878445    -0.30800
H2131       H  0.38816659  0.97659169  0.07937017     0.13400
H2132       H  0.35314848  0.91149288  0.07801179     0.14000
C2133       C  0.86514844  0.68107032  0.29969704    -0.15600
C2134       C  0.86359279  0.70172278  0.28216167    -0.30800
H2135       H  0.88301518  0.68614459  0.31675465     0.13400
H2136       H  0.84510556  0.69688138  0.26520051     0.14000
C2137       C  0.75606793  0.51573259  0.24819854    -0.15600
C2138       C  0.75399755  0.98502647  0.25372943    -0.30800
H2139       H  0.74562216  0.52100272  0.22983006     0.13400
H2140       H  0.75691124  0.98013072  0.27273031     0.14000
C2141       C  0.68406419  0.65493694  0.25713814    -0.15600
C2142       C  0.68103401  0.65867746  0.23317567    -0.30800
H2143       H  0.65818281  0.66753160  0.26859973     0.13400
H2144       H  0.70615436  0.64611444  0.22138123     0.14000
C2145       C  0.64298755  0.55322462  0.33049241    -0.15600
C2146       C  0.59871820  0.56942891  0.33143183    -0.30800
H2147       H  0.64074192  0.52909910  0.33049578     0.13400
H2148       H  0.60138916  0.59352610  0.33204742     0.14000
C2149       C  0.93626770  0.54420687  0.26737312    -0.15600
C2150       C  0.92867923  0.53338235  0.24525939    -0.30800
H2151       H  0.97060962  0.53796814  0.27769798     0.13400
H2152       H  0.89289326  0.53905732  0.23572295     0.14000
C2153       C  0.86967719  0.67060787  0.45363719    -0.15600
C2154       C  0.86857665  0.69181252  0.47022574    -0.30800
H2155       H  0.84919610  0.67394356  0.43682100     0.13400
H2156       H  0.89230910  0.68949450  0.48623420     0.14000
C2157       C  0.99082984  0.50753003  0.50762558    -0.15600
C2158       C  0.98189156  0.97959927  0.49770139    -0.30800
H2159       H  0.00200796  0.51295308  0.52574515     0.13400
H2160       H  0.96961131  0.97499239  0.47956195     0.14000
C2161       C  0.89960742  0.57995047  0.37892859    -0.15600
C2162       C  0.84804064  0.58398834  0.37562130    -0.30800
H2163       H  0.92565975  0.57863345  0.36364241     0.13400
H2164       H  0.82288285  0.58822166  0.39084515     0.14000
C2165       C  0.06309154  0.64786958  0.49676393    -0.15600
C2166       C  0.07160702  0.64946522  0.52060003    -0.30800
H2167       H  0.08572885  0.66209740  0.48476225     0.13400
H2168       H  0.04978999  0.63540133  0.53300763     0.14000
C2169       C  0.10338454  0.54756993  0.42512450    -0.15600
C2170       C  0.14842777  0.56315058  0.42391304    -0.30800
H2171       H  0.10472169  0.52341902  0.42567711     0.13400
H2172       H  0.14707512  0.58727170  0.42265954     0.14000
C2173       C  0.80928680  0.53529298  0.48697973    -0.15600
C2174       C  0.81564395  0.52396369  0.50927680    -0.30800
H2175       H  0.77522707  0.52954175  0.47641829     0.13400
H2176       H  0.85138240  0.52904627  0.51894873     0.14000
loop_ 
_geom_bond_atom_site_label_1 
_geom_bond_atom_site_label_2 
_geom_bond_distance 
_geom_bond_site_symmetry_2 
_ccdc_geom_bond_type 
O1           C16   1.260       .  A
O1           Al9   1.903       .  S
C2           O12   1.263       .  A
C2            O3   1.266       .  A
C2         C1081   1.476       .  S
O3           Al5   1.935   1_455  S
O4            C6   1.259       .  A
O4           Al5   1.860       .  S
Al5          O13   1.891       .  S
Al5          O15   1.899       .  S
Al5          O14   1.781       .  S
C6           O19   1.266       .  A
C6         C1069   1.457       .  S
O7           C17   1.255       .  A
O7           Al9   1.905   1_455  S
O8           C21   1.260       .  A
O8          Al18   1.879       .  S
Al9          O22   1.935       .  S
Al9          O19   1.919       .  S
Al9          O14   1.790       .  S
O10          C17   1.261       .  A
O10         Al18   1.917   1_455  S
O11          C20   1.263       .  A
O11         Al18   1.937       .  S
O12         Al18   1.893   1_455  S
O13          C20   1.258       .  A
O14         Al18   1.785       .  S
O15          C16   1.255       .  A
C16        C1085   1.472       .  S
C17        C1077   1.479       .  S
C20        C1073   1.470       .  S
C21          O22   1.272       .  A
C21        C1065   1.466       .  S
O23          C38   1.259       .  A
O23         Al31   1.898       .  S
C24          O34   1.264       .  A
C24          O25   1.269       .  A
C24        C1057   1.481       .  S
O25         Al27   1.946       .  S
O26          C28   1.259       .  A
O26         Al27   1.858       .  S
Al27         O35   1.903       .  S
Al27         O37   1.913       .  S
Al27         O36   1.778       .  S
C28          O41   1.266       .  A
C28        C1049   1.458       .  S
O29          C39   1.257       .  A
O29         Al31   1.904       .  S
O30          C43   1.261       .  A
O30         Al40   1.880       .  S
Al31         O44   1.937       .  S
Al31         O41   1.920       .  S
Al31         O36   1.790       .  S
O32          C39   1.258       .  A
O32         Al40   1.906       .  S
O33          C42   1.261       .  A
O33         Al40   1.926       .  S
O34         Al40   1.894       .  S
O35          C42   1.259       .  A
O36         Al40   1.782       .  S
O37          C38   1.258       .  A
C38        C1061   1.475       .  S
C39        C1053   1.473       .  S
C42        C1074   1.467       .  S
C43          O44   1.271       .  A
C43        C1045   1.462       .  S
O45          C60   1.267       .  A
O45         Al53   1.912       .  S
C46          O56   1.257       .  A
C46          O47   1.265       .  A
C46        C1041   1.491       .  S
O47         Al49   1.937       .  S
O48          C50   1.258       .  A
O48         Al49   1.899       .  S
Al49         O57   1.921       .  S
Al49         O59   1.928       .  S
Al49         O58   1.794       .  S
C50          O63   1.255       .  A
C50        C1037   1.475       .  S
O51          C61   1.268       .  A
O51         Al53   1.915       .  S
O52          C65   1.264       .  A
O52         Al62   1.925       .  S
Al53         O66   1.895       .  S
Al53         O63   1.908       .  S
Al53         O58   1.796       .  S
O54          C61   1.257       .  A
O54         Al62   1.858       .  S
O55          C64   1.254       .  A
O55         Al62   1.878       .  S
O56         Al62   1.894       .  S
O57          C64   1.262       .  A
O58         Al62   1.794       .  S
O59          C60   1.267       .  A
C60        C1022   1.478       .  S
C61        C1026   1.461   1_554  S
C64        C1030   1.473       .  S
C65          O66   1.256       .  A
C65        C1033   1.488       .  S
O67          C82   1.267       .  A
O67         Al75   1.897       .  S
C68          O78   1.257       .  A
C68          O69   1.263       .  A
C68        C1018   1.491       .  S
O69         Al71   1.923       .  S
O70          C72   1.254       .  A
O70         Al71   1.896       .  S
Al71         O79   1.903       .  S
Al71         O81   1.925       .  S
Al71         O80   1.788       .  S
C72          O85   1.253       .  A
C72        C1014   1.476       .  S
O73          C83   1.270       .  A
O73         Al75   1.902       .  S
O74          C87   1.261       .  A
O74         Al84   1.928       .  S
Al75         O88   1.885       .  S
Al75         O85   1.916       .  S
Al75         O80   1.793       .  S
O76          C83   1.264       .  A
O76         Al84   1.880       .  S
O77          C86   1.259       .  A
O77         Al84   1.892       .  S
O78         Al84   1.897       .  S
O79          C86   1.257       .  A
O80         Al84   1.794       .  S
O81          C82   1.271       .  A
C82        C1005   1.466       .  S
C83        C1050   1.456       .  S
C86        C1029   1.481       .  S
C87          O88   1.253       .  A
C87        C1010   1.487       .  S
O89         C104   1.257       .  A
O89         Al97   1.887       .  S
C90         O100   1.260       .  A
C90          O91   1.266       .  A
C90         C998   1.487       .  S
O91         Al93   1.941       .  S
O92          C94   1.253       .  A
O92         Al93   1.854       .  S
Al93        O101   1.886       .  S
Al93        O103   1.944       .  S
Al93        O102   1.790       .  S
C94         O107   1.264       .  A
C94         C985   1.452       .  S
O95         C105   1.259       .  A
O95         Al97   1.895       .  S
O96         C109   1.262       .  A
O96        Al106   1.886       .  S
Al97        O110   1.911       .  S
Al97        O107   1.923       .  S
Al97        O102   1.789       .  S
O98         C105   1.266       .  A
O98        Al106   1.931       .  S
O99         C108   1.269       .  A
O99        Al106   1.950       .  S
O100       Al106   1.890       .  S
O101        C108   1.258       .  A
O102       Al106   1.781       .  S
O103        C104   1.268       .  A
C104       C1002   1.480       .  S
C105        C993   1.477       .  S
C108        C989   1.480       .  S
C109        O110   1.262       .  A
C109        C982   1.466       .  S
O111        C126   1.259       .  A
O111       Al119   1.908       .  S
C112        O122   1.262       .  A
C112        O113   1.264       .  A
C112        C973   1.486       .  S
O113       Al115   1.930       .  S
O114        C116   1.261       .  A
O114       Al115   1.874       .  S
Al115       O123   1.905       .  S
Al115       O125   1.907       .  S
Al115       O124   1.793       .  S
C116        O129   1.266       .  A
C116       C1025   1.461   1_556  S
O117        C127   1.259       .  A
O117       Al119   1.908       .  S
O118        C131   1.259       .  A
O118       Al128   1.886       .  S
Al119       O132   1.919       .  S
Al119       O129   1.921       .  S
Al119       O124   1.793       .  S
O120        C127   1.262       .  A
O120       Al128   1.918       .  S
O121        C130   1.266       .  A
O121       Al128   1.935       .  S
O122       Al128   1.907       .  S
O123        C130   1.263       .  A
O124       Al128   1.782       .  S
O125        C126   1.258       .  A
C126        C977   1.472       .  S
C127        C970   1.482       .  S
C130        C990   1.486       .  S
C131        O132   1.265       .  A
C131        C965   1.463       .  S
O133        C148   1.263       .  A
O133       Al141   1.888       .  S
C134        O144   1.253       .  A
C134        O135   1.267       .  A
C134        C961   1.482       .  S
O135       Al137   1.943       .  S
O136        C138   1.258       .  A
O136       Al137   1.906       .  S
Al137       O145   1.919       .  S
Al137       O147   1.934       .  S
Al137       O146   1.781       .  S
C138        O151   1.257       .  A
C138        C957   1.473       .  S
O139        C149   1.269       .  A
O139       Al141   1.914       .  S
O140        C153   1.261       .  A
O140       Al150   1.918       .  S
Al141       O154   1.883       .  S
Al141       O151   1.916       .  S
Al141       O146   1.785       .  S
O142        C149   1.260       .  A
O142       Al150   1.862       .  S
O143        C152   1.254       .  A
O143       Al150   1.881       .  S
O144       Al150   1.871       .  S
O145        C152   1.261       .  A
O146       Al150   1.787       .  S
O147        C148   1.270       .  A
C148        C946   1.464       .  S
C149        C986   1.459       .  S
C152        C949   1.469       .  S
C153        O154   1.257       .  A
C153        C953   1.478       .  S
O155        C170   1.263       .  A
O155       Al163   1.891       .  S
C156        O166   1.255       .  A
C156        O157   1.265       .  A
C156        C942   1.484       .  S
O157       Al159   1.927   1_655  S
O158        C160   1.254       .  A
O158       Al159   1.892   1_655  S
Al159       O167   1.906       .  S
Al159       O169   1.925       .  S
Al159       O168   1.792       .  S
C160        O173   1.256   1_655  A
C160        C937   1.471       .  S
O161        C171   1.268       .  A
O161       Al163   1.906       .  S
O162        C175   1.258       .  A
O162       Al172   1.913       .  S
Al163       O176   1.884       .  S
Al163       O173   1.908       .  S
Al163       O168   1.788       .  S
O164        C171   1.263       .  A
O164       Al172   1.889       .  S
O165        C174   1.258       .  A
O165       Al172   1.887       .  S
O166       Al172   1.883   1_655  S
O167        C174   1.257       .  A
O168       Al172   1.792       .  S
O169        C170   1.268       .  A
C170        C930   1.460       .  S
C171       C1070   1.463   1_455  S
C174        C950   1.481       .  S
C175        O176   1.255       .  A
C175        C933   1.477       .  S
O177        C192   1.265       .  A
O177      Al1273   1.892   1_545  S
C178        O188   1.258       .  A
C178        O179   1.263       .  A
C178       C1042   1.492       .  S
O179       Al181   1.922       .  S
O180        C182   1.255       .  A
O180      Al1269   1.905       .  S
Al181       O189   1.918       .  S
Al181      O1268   1.906       .  S
Al181      O1279   1.910       .  S
Al181       O190   1.800       .  S
C182       O1283   1.254       .  A
C182        C978   1.474   1_554  S
O183        C193   1.267       .  A
O183       Al185   1.906       .  S
O184        C197   1.260       .  A
O184       Al194   1.921       .  S
Al185       O198   1.889       .  S
Al185       O195   1.893       .  S
Al185      O1265   1.909       .  S
Al185       O190   1.798       .  S
O186        C193   1.260       .  A
O186       Al194   1.879       .  S
O187        C196   1.256       .  A
O187       Al194   1.889       .  S
O188       Al194   1.901       .  S
O189        C196   1.258       .  A
O190       Al194   1.804       .  S
O191        C192   1.270       .  A
O191      Al1269   1.922       .  S
C192        C913   1.462       .  S
C193        C917   1.460       .  S
O195       C1270   1.250       .  A
C196        C922   1.492       .  S
C197        O198   1.255       .  A
C197        C926   1.488       .  S
O199        C214   1.263       .  A
O199      Al1295   1.894   1_545  S
C200        O210   1.256       .  A
C200        O201   1.268       .  A
C200       C1017   1.487       .  S
O201       Al203   1.943   1_655  S
O202        C204   1.260       .  A
O202      Al1291   1.918   1_645  S
Al203       O211   1.936       .  S
Al203      O1290   1.913   1_455  S
Al203      O1301   1.916       .  S
Al203       O212   1.792       .  S
C204       O1305   1.253   1_655  A
C204       C1062   1.484       .  S
O205        C215   1.271       .  A
O205       Al207   1.926       .  S
O206        C219   1.261       .  A
O206       Al216   1.917       .  S
Al207       O220   1.887       .  S
Al207       O217   1.907       .  S
Al207      O1287   1.904       .  S
Al207       O212   1.795       .  S
O208        C215   1.259       .  A
O208       Al216   1.870       .  S
O209        C218   1.252       .  A
O209       Al216   1.880       .  S
O210       Al216   1.882   1_655  S
O211        C218   1.261       .  A
O212       Al216   1.793       .  S
O213        C214   1.267       .  A
O213      Al1291   1.922   1_545  S
C214        C901   1.465       .  S
C215        C905   1.470   1_455  S
O217       C1292   1.255   1_455  A
C218        C921   1.482       .  S
C219        O220   1.255       .  A
C219        C910   1.474       .  S
O221        C236   1.254       .  A
O221       Al229   1.881       .  S
C222        O232   1.263       .  A
C222        O223   1.259       .  A
C222        C897   1.493       .  S
O223       Al225   1.905   1_455  S
O224        C226   1.261       .  A
O224       Al225   1.893       .  S
Al225       O233   1.895       .  S
Al225       O235   1.927       .  S
Al225       O234   1.801       .  S
C226        O239   1.269       .  A
C226        C906   1.461   1_655  S
O227        C237   1.251   1_655  A
O227       Al229   1.902       .  S
O228        C241   1.268       .  A
O228       Al238   1.909       .  S
Al229       O242   1.899       .  S
Al229       O239   1.902       .  S
Al229       O234   1.795       .  S
O230        C237   1.255       .  A
O230       Al238   1.898   1_455  S
O231        C240   1.256       .  A
O231       Al238   1.905       .  S
O232       Al238   1.921   1_455  S
O233        C240   1.259       .  A
O234       Al238   1.796       .  S
O235        C236   1.262       .  A
C236       C1013   1.484       .  S
C237        C893   1.474       .  S
C240        C889   1.486       .  S
C241        O242   1.266       .  A
C241       C1046   1.472       .  S
O243        C258   1.259       .  A
O243       Al251   1.895       .  S
C244        O254   1.261       .  A
C244        O245   1.261       .  A
C244        C885   1.479       .  S
O245       Al247   1.920       .  S
O246        C248   1.254       .  A
O246       Al247   1.854       .  S
Al247       O255   1.860       .  S
Al247       O257   1.903       .  S
Al247       O256   1.792       .  S
C248        O261   1.263       .  A
C248        C877   1.445       .  S
O249        C259   1.260       .  A
O249       Al251   1.911       .  S
O250        C263   1.263       .  A
O250       Al260   1.888       .  S
Al251       O264   1.913       .  S
Al251       O261   1.909       .  S
Al251       O256   1.791       .  S
O252        C259   1.266       .  A
O252       Al260   1.929       .  S
O253        C262   1.270       .  A
O253       Al260   1.961       .  S
O254       Al260   1.903       .  S
O255        C262   1.252       .  A
O256       Al260   1.782       .  S
O257        C258   1.257       .  A
C258        C938   1.463       .  S
C259        C881   1.486       .  S
C262        C890   1.472       .  S
C263        O264   1.263       .  A
C263       C1066   1.470       .  S
O265        C280   1.269       .  A
O265      Al1361   1.948   1_545  S
C266        O276   1.267       .  A
C266        O267   1.265       .  A
C266        C962   1.487       .  S
O267       Al269   1.904       .  S
O268        C270   1.267       .  A
O268      Al1357   1.953       .  S
Al269       O277   1.939       .  S
Al269      O1356   1.950       .  S
Al269      O1367   1.869       .  S
Al269       O278   1.785       .  S
C270       O1371   1.251   1_545  A
C270       C1001   1.475       .  S
O271        C281   1.263       .  A
O271       Al273   1.900       .  S
O272        C285   1.261       .  A
O272       Al282   1.926       .  S
Al273       O286   1.897       .  S
Al273       O283   1.883       .  S
Al273      O1353   1.934       .  S
Al273       O278   1.783       .  S
O274        C281   1.259       .  A
O274       Al282   1.869       .  S
O275        C284   1.263       .  A
O275       Al282   1.897       .  S
O276       Al282   1.939       .  S
O277        C284   1.266       .  A
O278       Al282   1.783       .  S
O279        C280   1.256       .  A
O279      Al1357   1.874       .  S
C280        C861   1.466       .  S
C281        C865   1.449       .  S
O283       C1358   1.252       .  A
C284        C869   1.485       .  S
C285        O286   1.260       .  A
C285        C873   1.483       .  S
O287        C302   1.263   1_565  A
O287      Al1383   1.911       .  S
C288        O298   1.257       .  A
C288        O289   1.265       .  A
C288        C941   1.485       .  S
O289       Al291   1.932       .  S
O290        C292   1.261       .  A
O290      Al1379   1.904   1_545  S
Al291       O299   1.931       .  S
Al291      O1378   1.913       .  S
Al291      O1389   1.912       .  S
Al291       O300   1.792       .  S
C292       O1393   1.261   1_545  A
C292       C1086   1.480       .  S
O293        C303   1.269       .  A
O293       Al295   1.918       .  S
O294        C307   1.264       .  A
O294       Al304   1.927       .  S
Al295       O308   1.898       .  S
Al295       O305   1.915       .  S
Al295      O1375   1.899       .  S
Al295       O300   1.797       .  S
O296        C303   1.257       .  A
O296       Al304   1.853       .  S
O297        C306   1.253       .  A
O297       Al304   1.881       .  S
O298       Al304   1.888       .  S
O299        C306   1.263       .  A
O300       Al304   1.792       .  S
O301        C302   1.256       .  A
O301      Al1379   1.873   1_545  S
C302        C853   1.459       .  S
C303        C878   1.462       .  S
O305       C1380   1.256       .  A
C306        C870   1.477       .  S
C307        O308   1.257       .  A
C307        C857   1.490       .  S
O309        C324   1.261       .  A
O309       Al317   1.906       .  S
C310        O320   1.260       .  A
C310        O311   1.261       .  A
C310        C849   1.484       .  S
O311       Al313   1.925       .  S
O312        C314   1.257       .  A
O312       Al313   1.853       .  S
Al313       O321   1.873       .  S
Al313       O323   1.926       .  S
Al313       O322   1.777       .  S
C314        O327   1.266       .  A
C314        C866   1.457       .  S
O315        C325   1.259       .  A
O315       Al317   1.889       .  S
O316        C329   1.257       .  A
O316       Al326   1.885       .  S
Al317       O330   1.917       .  S
Al317       O327   1.935       .  S
Al317       O322   1.787       .  S
O318        C325   1.268       .  A
O318       Al326   1.936       .  S
O319        C328   1.272       .  A
O319       Al326   1.948       .  S
O320       Al326   1.909       .  S
O321        C328   1.258       .  A
O322       Al326   1.774       .  S
O323        C324   1.263       .  A
C324        C958   1.470       .  S
C325        C846   1.476       .  S
C328        C841   1.471       .  S
C329        O330   1.265       .  A
C329        C981   1.465       .  S
O331        C346   1.256       .  A
O331       Al339   1.890       .  S
C332        O342   1.263       .  A
C332        O333   1.258       .  A
C332        C837   1.490       .  S
O333       Al335   1.898       .  S
O334        C336   1.261       .  A
O334       Al335   1.881       .  S
Al335       O343   1.901       .  S
Al335       O345   1.924       .  S
Al335       O344   1.794       .  S
C336        O349   1.269   1_556  A
C336        C918   1.462   1_556  S
O337        C347   1.254   1_554  A
O337       Al339   1.912   1_554  S
O338        C351   1.268       .  A
O338       Al348   1.907       .  S
Al339       O352   1.901       .  S
Al339       O349   1.909   1_556  S
Al339       O344   1.798       .  S
O340        C347   1.253       .  A
O340       Al348   1.886       .  S
O341        C350   1.254       .  A
O341       Al348   1.893       .  S
O342       Al348   1.925       .  S
O343        C350   1.258       .  A
O344       Al348   1.788       .  S
O345        C346   1.262       .  A
C346       C1038   1.481       .  S
C347        C833   1.470   1_556  S
C350        C842   1.477       .  S
C351        O352   1.267       .  A
C351        C966   1.470       .  S
O353        C368   1.267       .  A
O353       Al361   1.912       .  S
C354        O364   1.256       .  A
C354        O355   1.267       .  A
C354        C829   1.489       .  S
O355       Al357   1.943       .  S
O356        C358   1.258       .  A
O356       Al357   1.904       .  S
Al357       O365   1.925       .  S
Al357       O367   1.927       .  S
Al357       O366   1.795       .  S
C358        O371   1.258       .  A
C358        C825   1.483       .  S
O359        C369   1.269       .  A
O359       Al361   1.926       .  S
O360        C373   1.263       .  A
O360       Al370   1.923       .  S
Al361       O374   1.906       .  S
Al361       O371   1.920       .  S
Al361       O366   1.795       .  S
O362        C369   1.256       .  A
O362       Al370   1.855       .  S
O363        C372   1.252       .  A
O363       Al370   1.876       .  S
O364       Al370   1.886       .  S
O365        C372   1.261       .  A
O366       Al370   1.794       .  S
O367        C368   1.267       .  A
C368       C1021   1.478       .  S
C369        C817   1.468   1_554  S
C372        C821   1.474       .  S
C373        O374   1.260       .  A
C373        C969   1.490       .  S
O375        C390   1.264       .  A
O375       Al383   1.895       .  S
C376        O386   1.256       .  A
C376        O377   1.263       .  A
C376        C814   1.488       .  S
O377       Al379   1.925       .  S
O378        C380   1.255       .  A
O378       Al379   1.893       .  S
Al379       O387   1.903       .  S
Al379       O389   1.926       .  S
Al379       O388   1.788       .  S
C380        O393   1.256       .  A
C380        C809   1.474       .  S
O381        C391   1.268       .  A
O381       Al383   1.901       .  S
O382        C395   1.261       .  A
O382       Al392   1.923       .  S
Al383       O396   1.885       .  S
Al383       O393   1.923       .  S
Al383       O388   1.790       .  S
O384        C391   1.264       .  A
O384       Al392   1.887       .  S
O385        C394   1.261       .  A
O385       Al392   1.899       .  S
O386       Al392   1.892       .  S
O387        C394   1.257       .  A
O388       Al392   1.792       .  S
O389        C390   1.269       .  A
C390       C1006   1.466       .  S
C391        C806   1.458       .  S
C394        C822   1.483       .  S
C395        O396   1.255       .  A
C395       C1054   1.486       .  S
O397        C412   1.258       .  A
O397       Al405   1.888       .  S
C398        O408   1.260       .  A
C398        O399   1.262       .  A
C398       C1082   1.476       .  S
O399       Al401   1.920       .  S
O400        C402   1.259       .  A
O400       Al401   1.883       .  S
Al401       O409   1.895       .  S
Al401       O411   1.890       .  S
Al401       O410   1.799       .  S
C402        O415   1.263       .  A
C402        C793   1.463       .  S
O403       C1501   1.258   1_545  A
O403       Al405   1.912       .  S
O404        C417   1.265       .  A
O404      Al1502   1.878       .  S
Al405       O415   1.907       .  S
Al405      O1506   1.920   1_545  S
Al405       O410   1.798       .  S
O406        C413   1.253       .  A
O406      Al1502   1.887       .  S
O407        C416   1.262       .  A
O407       Al414   1.928   1_545  S
O408       Al414   1.892   1_545  S
O409        C416   1.258       .  A
O410       Al414   1.787   1_545  S
O411        C412   1.255       .  A
C412        C802   1.461       .  S
C413       O1491   1.255       .  A
C413        C934   1.464       .  S
Al414      O1492   1.878       .  S
Al414      O1494   1.894       .  S
C416        C797   1.484       .  S
C417        O418   1.265       .  A
C417        C790   1.465       .  S
O418      Al1493   1.914       .  S
O419        C434   1.262       .  A
O419       Al427   1.905       .  S
C420        O430   1.262       .  A
C420        O421   1.265       .  A
C420       C1058   1.481       .  S
O421       Al423   1.931       .  S
O422        C424   1.255       .  A
O422       Al423   1.855       .  S
Al423       O431   1.884       .  S
Al423       O433   1.914       .  S
Al423       O432   1.786       .  S
C424        O437   1.261       .  A
C424        C805   1.453       .  S
O425       C1523   1.259   1_545  A
O425       Al427   1.898       .  S
O426        C439   1.259       .  A
O426      Al1524   1.884       .  S
Al427       O437   1.909       .  S
Al427      O1528   1.921   1_545  S
Al427       O432   1.794       .  S
O428        C435   1.265       .  A
O428      Al1524   1.925       .  S
O429        C438   1.266       .  A
O429       Al436   1.945       .  S
O430       Al436   1.898       .  S
O431        C438   1.255       .  A
O432       Al436   1.787       .  S
O433        C434   1.260       .  A
C434        C786   1.478       .  S
C435       O1513   1.259       .  A
C435       C1009   1.477       .  S
Al436      O1514   1.875   1_545  S
Al436      O1516   1.926   1_545  S
C438        C798   1.478       .  S
C439        O440   1.267       .  A
C439        C781   1.466       .  S
O440      Al1515   1.934       .  S
O441        C456   1.267       .  A
O441       Al449   1.902       .  S
C442        O452   1.258       .  A
C442        O443   1.264       .  A
C442        C777   1.493       .  S
O443       Al445   1.928   1_655  S
O444        C446   1.255       .  A
O444       Al445   1.905   1_655  S
Al445       O453   1.919       .  S
Al445       O455   1.915       .  S
Al445       O454   1.798       .  S
C446        O459   1.251   1_655  A
C446        C774   1.480       .  S
O447        C457   1.270       .  A
O447       Al449   1.915       .  S
O448        C461   1.260       .  A
O448       Al458   1.926       .  S
Al449       O462   1.882       .  S
Al449       O459   1.898       .  S
Al449       O454   1.797       .  S
O450        C457   1.259       .  A
O450       Al458   1.857       .  S
O451        C460   1.253       .  A
O451       Al458   1.872       .  S
O452       Al458   1.899   1_655  S
O453        C460   1.258       .  A
O454       Al458   1.798       .  S
O455        C456   1.270       .  A
C456        C945   1.468       .  S
C457        C765   1.459   1_455  S
C460        C770   1.485       .  S
C461        O462   1.252       .  A
C461        C994   1.486       .  S
O463        C478   1.262       .  A
O463       Al471   1.912       .  S
C464        O474   1.263       .  A
C464        O465   1.258       .  A
C464        C761   1.488       .  S
O465       Al467   1.909       .  S
O466        C468   1.260       .  A
O466       Al467   1.897       .  S
Al467       O475   1.907       .  S
Al467       O477   1.891       .  S
Al467       O476   1.792       .  S
C468        O481   1.261       .  A
C468        C757   1.471       .  S
O469        C479   1.267       .  A
O469       Al471   1.923       .  S
O470        C483   1.269       .  A
O470       Al480   1.942       .  S
Al471       O484   1.879       .  S
Al471       O481   1.916       .  S
Al471       O476   1.787       .  S
O472        C479   1.258       .  A
O472       Al480   1.874       .  S
O473        C482   1.263       .  A
O473       Al480   1.915       .  S
O474       Al480   1.925       .  S
O475        C482   1.261       .  A
O476       Al480   1.788       .  S
O477        C478   1.258       .  A
C478        C929   1.467       .  S
C479        C794   1.476       .  S
C482        C769   1.477       .  S
C483        O484   1.258       .  A
C483       C1078   1.492       .  S
O485        C500   1.255       .  A
O485       Al493   1.876       .  S
C486        O496   1.263       .  A
C486        O487   1.257       .  A
C486        C997   1.482       .  S
O487       Al489   1.888   1_455  S
O488        C490   1.258       .  A
O488       Al489   1.875       .  S
Al489       O497   1.880       .  S
Al489       O499   1.919       .  S
Al489       O498   1.793       .  S
C490        O503   1.267       .  A
C490        C766   1.454       .  S
O491       C1589   1.252   1_655  A
O491       Al493   1.899       .  S
O492        C505   1.261       .  A
O492      Al1590   1.891       .  S
Al493       O503   1.902       .  S
Al493      O1594   1.891       .  S
Al493       O498   1.793       .  S
O494        C501   1.259       .  A
O494      Al1590   1.891   1_455  S
O495        C504   1.257       .  A
O495       Al502   1.909       .  S
O496       Al502   1.925   1_455  S
O497        C504   1.257       .  A
O498       Al502   1.789       .  S
O499        C500   1.261       .  A
C500        C753   1.474       .  S
C501       O1579   1.259       .  A
C501        C954   1.462       .  S
Al502      O1580   1.902   1_545  S
Al502      O1582   1.900   1_655  S
C504        C749   1.481       .  S
C505        O506   1.258       .  A
C505        C746   1.468       .  S
O506      Al1581   1.900       .  S
O507        C522   1.259       .  A
O507       Al515   1.894       .  S
C508        O518   1.262       .  A
C508        O509   1.261       .  A
C508        C974   1.485       .  S
O509       Al511   1.920       .  S
O510        C512   1.254       .  A
O510       Al511   1.862       .  S
Al511       O519   1.859       .  S
Al511       O521   1.900       .  S
Al511       O520   1.796       .  S
C512        O525   1.263       .  A
C512        C818   1.452       .  S
O513       C1611   1.258       .  A
O513       Al515   1.899       .  S
O514        C527   1.256       .  A
O514      Al1612   1.870       .  S
Al515       O525   1.909       .  S
Al515      O1616   1.913   1_545  S
Al515       O520   1.791       .  S
O516        C523   1.265       .  A
O516      Al1612   1.933       .  S
O517        C526   1.267       .  A
O517       Al524   1.944       .  S
O518       Al524   1.913       .  S
O519        C526   1.252       .  A
O520       Al524   1.791       .  S
O521        C522   1.256       .  A
C522        C741   1.466       .  S
C523       O1601   1.257       .  A
C523       C1034   1.482       .  S
Al524      O1602   1.902   1_545  S
Al524      O1604   1.908   1_545  S
C526        C750   1.467       .  S
C527        O528   1.270       .  A
C527        C737   1.462       .  S
O528      Al1603   1.939       .  S
O529        C544   1.260       .  A
O529       Al537   1.903       .  S
C530        O540   1.259       .  A
C530        O531   1.265       .  A
C530        C838   1.493       .  S
O531       Al533   1.939   1_455  S
O532        C534   1.257       .  A
O532       Al533   1.865       .  S
Al533       O541   1.890       .  S
Al533       O543   1.907       .  S
Al533       O542   1.799       .  S
C534        O547   1.261   1_556  A
C534        C730   1.456   1_656  S
O535        C545   1.259   1_554  A
O535       Al537   1.913   1_454  S
O536        C549   1.264       .  A
O536       Al546   1.885       .  S
Al537       O550   1.910       .  S
Al537       O547   1.904   1_556  S
Al537       O542   1.803       .  S
O538        C545   1.257       .  A
O538       Al546   1.896   1_455  S
O539        C548   1.263       .  A
O539       Al546   1.935       .  S
O540       Al546   1.900   1_455  S
O541        C548   1.257       .  A
O542       Al546   1.794       .  S
O543        C544   1.258       .  A
C544        C826   1.476       .  S
C545        C925   1.476   1_556  S
C548        C733   1.486       .  S
C549        O550   1.262       .  A
C549        C738   1.470       .  S
O551        C566   1.259       .  A
O551       Al559   1.894       .  S
C552        O562   1.262       .  A
C552        O553   1.265       .  A
C552        C850   1.485       .  S
O553       Al555   1.934       .  S
O554        C556   1.256       .  A
O554       Al555   1.853       .  S
Al555       O563   1.884       .  S
Al555       O565   1.917       .  S
Al555       O564   1.786       .  S
C556        O569   1.265       .  A
C556        C725   1.453       .  S
O557        C567   1.257       .  A
O557       Al559   1.894       .  S
O558        C571   1.258       .  A
O558       Al568   1.876       .  S
Al559       O572   1.930       .  S
Al559       O569   1.921       .  S
Al559       O564   1.789       .  S
O560        C567   1.265       .  A
O560       Al568   1.943       .  S
O561        C570   1.269       .  A
O561       Al568   1.949       .  S
O562       Al568   1.904       .  S
O563        C570   1.257       .  A
O564       Al568   1.783       .  S
O565        C566   1.260       .  A
C566        C773   1.473       .  S
C567        C874   1.488       .  S
C570        C734   1.476       .  S
C571        O572   1.270       .  A
C571        C745   1.465       .  S
O573        C588   1.263       .  A
O573       Al581   1.886       .  S
C574        O584   1.257       .  A
C574        O575   1.266       .  A
C574        C830   1.489       .  S
O575       Al577   1.931   1_655  S
O576        C578   1.252       .  A
O576       Al577   1.885   1_655  S
Al577       O585   1.898       .  S
Al577       O587   1.927       .  S
Al577       O586   1.790       .  S
C578        O591   1.256   1_655  A
C578        C742   1.472       .  S
O579        C589   1.269       .  A
O579       Al581   1.906       .  S
O580        C593   1.259       .  A
O580       Al590   1.919       .  S
Al581       O594   1.892       .  S
Al581       O591   1.917       .  S
Al581       O586   1.790       .  S
O582        C589   1.265       .  A
O582       Al590   1.893       .  S
O583        C592   1.259       .  A
O583       Al590   1.895       .  S
O584       Al590   1.889   1_655  S
O585        C592   1.254       .  A
O586       Al590   1.789       .  S
O587        C588   1.271       .  A
C588        C914   1.460       .  S
C589        C729   1.464   1_455  S
C592        C722   1.482       .  S
C593        O594   1.256       .  A
C593        C834   1.477       .  S
O595        C610   1.265       .  A
O595       Al603   1.902       .  S
C596        O606   1.257       .  A
C596        O597   1.267       .  A
C596        C813   1.486       .  S
O597       Al599   1.938       .  S
O598        C600   1.258       .  A
O598       Al599   1.911       .  S
Al599       O607   1.926       .  S
Al599       O609   1.914       .  S
Al599       O608   1.793       .  S
C600        O613   1.255       .  A
C600        C785   1.486       .  S
O601        C611   1.269       .  A
O601       Al603   1.921       .  S
O602        C615   1.263       .  A
O602       Al612   1.923       .  S
Al603       O616   1.893       .  S
Al603       O613   1.910       .  S
Al603       O608   1.795       .  S
O604        C611   1.255       .  A
O604       Al612   1.852       .  S
O605        C614   1.249       .  A
O605       Al612   1.867       .  S
O606       Al612   1.885       .  S
O607        C614   1.260       .  A
O608       Al612   1.795       .  S
O609        C610   1.267       .  A
C610        C902   1.469       .  S
C611        C717   1.461       .  S
C614        C721   1.472       .  S
C615        O616   1.257       .  A
C615        C894   1.480       .  S
O617        C632   1.256       .  A
O617       Al625   1.887       .  S
C618        O628   1.265       .  A
C618        O619   1.258       .  A
C618        C898   1.491       .  S
O619       Al621   1.896       .  S
O620        C622   1.257       .  A
O620       Al621   1.874       .  S
Al621       O629   1.879       .  S
Al621       O631   1.924       .  S
Al621       O630   1.795       .  S
C622        O635   1.267       .  A
C622        C718   1.452       .  S
O623        C633   1.253       .  A
O623       Al625   1.899       .  S
O624        C637   1.268       .  A
O624       Al634   1.914       .  S
Al625       O638   1.901       .  S
Al625       O635   1.901       .  S
Al625       O630   1.790       .  S
O626        C633   1.257       .  A
O626       Al634   1.899       .  S
O627        C636   1.257       .  A
O627       Al634   1.907       .  S
O628       Al634   1.934       .  S
O629        C636   1.256       .  A
O630       Al634   1.790       .  S
O631        C632   1.262       .  A
C632        C810   1.481       .  S
C633        C909   1.470       .  S
C636        C713   1.478       .  S
C637        O638   1.266       .  A
C637        C782   1.475       .  S
O639        C654   1.259       .  A
O639       Al647   1.900       .  S
C640        O650   1.261       .  A
C640        O641   1.262       .  A
C640        C886   1.479       .  S
O641       Al643   1.923       .  S
O642        C644   1.257       .  A
O642       Al643   1.854       .  S
Al643       O651   1.863       .  S
Al643       O653   1.906       .  S
Al643       O652   1.785       .  S
C644        O657   1.267       .  A
C644        C709   1.455       .  S
O645        C655   1.260       .  A
O645       Al647   1.902       .  S
O646        C659   1.255       .  A
O646       Al656   1.869       .  S
Al647       O660   1.926       .  S
Al647       O657   1.931       .  S
Al647       O652   1.789       .  S
O648        C655   1.266       .  A
O648       Al656   1.930       .  S
O649        C658   1.268       .  A
O649       Al656   1.942       .  S
O650       Al656   1.900       .  S
O651        C658   1.254       .  A
O652       Al656   1.779       .  S
O653        C654   1.258       .  A
C654        C758   1.463       .  S
C655        C858   1.482       .  S
C658        C714   1.464       .  S
C659        O660   1.267       .  A
C659        C789   1.459       .  S
O661        C676   1.266       .  A
O661       Al669   1.900       .  S
C662        O672   1.258       .  A
C662        O663   1.265       .  A
C662        C778   1.494       .  S
O663       Al665   1.935       .  S
O664        C666   1.255       .  A
O664       Al665   1.895       .  S
Al665       O673   1.920       .  S
Al665       O675   1.919       .  S
Al665       O674   1.792       .  S
C666        O679   1.251       .  A
C666        C754   1.467       .  S
O667        C677   1.265       .  A
O667       Al669   1.902       .  S
O668        C681   1.263       .  A
O668       Al678   1.923       .  S
Al669       O682   1.886       .  S
Al669       O679   1.894       .  S
Al669       O674   1.801       .  S
O670        C677   1.259       .  A
O670       Al678   1.874       .  S
O671        C680   1.256       .  A
O671       Al678   1.891       .  S
O672       Al678   1.898       .  S
O673        C680   1.260       .  A
O674       Al678   1.795       .  S
O675        C676   1.270       .  A
C676        C862   1.478       .  S
C677        C726   1.457       .  S
C680        C705   1.482       .  S
C681        O682   1.255       .  A
C681        C845   1.484       .  S
O683        C698   1.261       .  A
O683       Al691   1.898       .  S
C684        O694   1.263       .  A
C684        O685   1.259       .  A
C684        C762   1.489       .  S
O685       Al687   1.911       .  S
O686        C688   1.257       .  A
O686       Al687   1.889       .  S
Al687       O695   1.911       .  S
Al687       O697   1.893       .  S
Al687       O696   1.794       .  S
C688        O701   1.259       .  A
C688        C801   1.467       .  S
O689        C699   1.265       .  A
O689       Al691   1.912       .  S
O690        C703   1.272       .  A
O690       Al700   1.948       .  S
Al691       O704   1.889       .  S
Al691       O701   1.911       .  S
Al691       O696   1.790       .  S
O692        C699   1.255       .  A
O692       Al700   1.863       .  S
O693        C702   1.263       .  A
O693       Al700   1.912       .  S
O694       Al700   1.920       .  S
O695        C702   1.260       .  A
O696       Al700   1.789       .  S
O697        C698   1.260       .  A
C698        C854   1.456       .  S
C699        C710   1.463       .  S
C702        C706   1.488       .  S
C703        O704   1.259       .  A
C703        C882   1.498       .  S
C705        C706   1.347       .  D
C705        H707   1.087       .  S
C706        H708   1.086       .  S
C709        C710   1.351       .  D
C709        H711   1.086       .  S
C710        H712   1.087       .  S
C713        C714   1.343       .  D
C713        H715   1.087       .  S
C714        H716   1.087       .  S
C717        C718   1.354       .  D
C717        H719   1.086       .  S
C718        H720   1.087       .  S
C721        C722   1.342       .  D
C721        H723   1.087       .  S
C722        H724   1.086       .  S
C725        C726   1.347       .  D
C725        H727   1.086       .  S
C726        H728   1.087       .  S
C729        C730   1.347   1_655  D
C729        H731   1.087   1_554  S
C730        H732   1.087       .  S
C733        C734   1.346       .  D
C733        H735   1.087       .  S
C734        H736   1.087       .  S
C737        C738   1.339       .  D
C737        H739   1.087       .  S
C738        H740   1.087       .  S
C741        C742   1.343   1_556  D
C741        H743   1.086       .  S
C742        H744   1.088       .  S
C745        C746   1.338       .  D
C745        H747   1.087       .  S
C746        H748   1.088       .  S
C749        C750   1.343       .  D
C749        H751   1.086       .  S
C750        H752   1.087       .  S
C753        C754   1.353       .  D
C753        H755   1.086       .  S
C754        H756   1.088       .  S
C757        C758   1.345       .  D
C757        H759   1.088       .  S
C758        H760   1.086       .  S
C761        C762   1.343       .  D
C761        H763   1.087       .  S
C762        H764   1.087       .  S
C765        C766   1.353       .  D
C765        H767   1.086       .  S
C766        H768   1.087   1_655  S
C769        C770   1.350       .  D
C769        H771   1.087       .  S
C770        H772   1.086       .  S
C773        C774   1.350       .  D
C773        H775   1.086       .  S
C774        H776   1.088       .  S
C777        C778   1.350       .  D
C777        H779   1.087       .  S
C778        H780   1.087       .  S
C781        C782   1.343       .  D
C781        H783   1.086       .  S
C782        H784   1.087       .  S
C785        C786   1.351       .  D
C785        H787   1.087       .  S
C786        H788   1.086       .  S
C789        C790   1.338       .  D
C789        H791   1.087       .  S
C790        H792   1.087       .  S
C793        C794   1.351       .  D
C793        H795   1.086       .  S
C794        H796   1.086       .  S
C797        C798   1.344       .  D
C797        H799   1.086   1_545  S
C798        H800   1.087       .  S
C801        C802   1.344       .  D
C801        H803   1.088       .  S
C802        H804   1.086       .  S
C805        C806   1.346       .  D
C805        H807   1.086       .  S
C806        H808   1.087       .  S
C809        C810   1.353       .  D
C809        H811   1.088       .  S
C810        H812   1.086       .  S
C813        C814   1.346       .  D
C813        H815   1.087       .  S
C814        H816   1.087       .  S
C817        C818   1.352       .  D
C817        H819   1.086       .  S
C818        H820   1.086   1_556  S
C821        C822   1.342       .  D
C821        H823   1.087       .  S
C822        H824   1.086       .  S
C825        C826   1.350   1_554  D
C825        H827   1.088       .  S
C826        H828   1.086       .  S
C829        C830   1.346       .  D
C829        H831   1.087       .  S
C830        H832   1.087       .  S
C833        C834   1.350       .  D
C833        H835   1.088   1_554  S
C834        H836   1.086       .  S
C837        C838   1.351       .  D
C837        H839   1.087       .  S
C838        H840   1.086       .  S
C841        C842   1.340       .  D
C841        H843   1.087       .  S
C842        H844   1.087       .  S
C845        C846   1.355       .  D
C845        H847   1.086       .  S
C846        H848   1.087       .  S
C849        C850   1.346       .  D
C849        H851   1.087       .  S
C850        H852   1.086       .  S
C853        C854   1.346       .  D
C853        H855   1.087       .  S
C854        H856   1.087       .  S
C857        C858   1.357       .  D
C857        H859   1.086       .  S
C858        H860   1.087       .  S
C861        C862   1.342       .  D
C861        H863   1.087       .  S
C862        H864   1.087       .  S
C865        C866   1.342       .  D
C865        H867   1.088       .  S
C866        H868   1.087       .  S
C869        C870   1.343       .  D
C869        H871   1.086       .  S
C870        H872   1.087       .  S
C873        C874   1.354       .  D
C873        H875   1.086       .  S
C874        H876   1.087       .  S
C877        C878   1.350       .  D
C877        H879   1.086       .  S
C878        H880   1.086       .  S
C881        C882   1.360       .  D
C881        H883   1.086       .  S
C882        H884   1.086       .  S
C885        C886   1.343       .  D
C885        H887   1.087       .  S
C886        H888   1.087       .  S
C889        C890   1.342       .  D
C889        H891   1.086       .  S
C890        H892   1.087       .  S
C893        C894   1.354       .  D
C893        H895   1.088       .  S
C894        H896   1.086       .  S
C897        C898   1.351       .  D
C897        H899   1.087       .  S
C898        H900   1.087       .  S
C901        C902   1.342       .  D
C901        H903   1.087       .  S
C902        H904   1.087       .  S
C905        C906   1.355   1_655  D
C905        H907   1.086       .  S
C906        H908   1.087       .  S
C909        C910   1.352       .  D
C909        H911   1.088       .  S
C910        H912   1.086       .  S
C913        C914   1.338       .  D
C913        H915   1.087       .  S
C914        H916   1.087       .  S
C917        C918   1.351       .  D
C917        H919   1.086   1_554  S
C918        H920   1.086       .  S
C921        C922   1.348       .  D
C921        H923   1.087       .  S
C922        H924   1.086       .  S
C925        C926   1.353       .  D
C925        H927   1.087   1_554  S
C926        H928   1.086       .  S
C929        C930   1.343       .  D
C929        H931   1.087       .  S
C930        H932   1.087       .  S
C933        C934   1.348       .  D
C933        H935   1.086       .  S
C934        H936   1.087       .  S
C937        C938   1.344       .  D
C937        H939   1.088       .  S
C938        H940   1.086       .  S
C941        C942   1.345       .  D
C941        H943   1.087       .  S
C942        H944   1.087       .  S
C945        C946   1.341       .  D
C945        H947   1.087       .  S
C946        H948   1.087       .  S
C949        C950   1.344       .  D
C949        H951   1.087       .  S
C950        H952   1.086       .  S
C953        C954   1.350       .  D
C953        H955   1.086       .  S
C954        H956   1.088       .  S
C957        C958   1.348       .  D
C957        H959   1.088       .  S
C958        H960   1.086       .  S
C961        C962   1.344       .  D
C961        H963   1.087       .  S
C962        H964   1.086       .  S
C965        C966   1.343       .  D
C965        H967   1.087       .  S
C966        H968   1.087       .  S
C969        C970   1.355   1_554  D
C969        H971   1.086       .  S
C970        H972   1.087       .  S
C973        C974   1.346       .  D
C973        H975   1.086       .  S
C974        H976   1.087       .  S
C977        C978   1.349       .  D
C977        H979   1.086       .  S
C978        H980   1.088   1_556  S
C981        C982   1.340       .  D
C981        H983   1.087       .  S
C982        H984   1.088       .  S
C985       C2074   1.351   1_545  D
C985        H987   1.086       .  S
C986       C2073   1.348       .  D
C986        H988   1.086       .  S
C989        C990   1.343       .  D
C989        H991   1.087       .  S
C990        H992   1.087       .  S
C993        C994   1.356       .  D
C993        H995   1.087       .  S
C994        H996   1.086       .  S
C997        C998   1.349       .  D
C997        H999   1.087       .  S
C998       H1000   1.086       .  S
C1001      C1002   1.342       .  D
C1001      H1003   1.086       .  S
C1002      H1004   1.087       .  S
C1005      C1006   1.341       .  D
C1005      H1007   1.087       .  S
C1006      H1008   1.087       .  S
C1009      C1010   1.354       .  D
C1009      H1011   1.087       .  S
C1010      H1012   1.086       .  S
C1013      C1014   1.355       .  D
C1013      H1015   1.086       .  S
C1014      H1016   1.088       .  S
C1017      C1018   1.347       .  D
C1017      H1019   1.087       .  S
C1018      H1020   1.087       .  S
C1021      C1022   1.348       .  D
C1021      H1023   1.087       .  S
C1022      H1024   1.087       .  S
C1025      C2114   1.347   1_544  D
C1025      H1027   1.086       .  S
C1026      C2113   1.350       .  D
C1026      H1028   1.087       .  S
C1029      C1030   1.342       .  D
C1029      H1031   1.086       .  S
C1030      H1032   1.087       .  S
C1033      C1034   1.357   1_554  D
C1033      H1035   1.086       .  S
C1034      H2124   1.087       .  S
H1036      C2122   1.087       .  S
C1037      C1038   1.354   1_554  D
C1037      H1039   1.087       .  S
C1038      H1040   1.086       .  S
C1041      C1042   1.350       .  D
C1041      H1043   1.087       .  S
C1042      H1044   1.086       .  S
C1045      C1046   1.341       .  D
C1045      H1047   1.087       .  S
C1046      H1048   1.087       .  S
C1049      C2138   1.345   1_545  D
C1049      H1051   1.087       .  S
C1050      C2137   1.346       .  D
C1050      H1052   1.087       .  S
C1053      C1054   1.352       .  D
C1053      H1055   1.087       .  S
C1054      H1056   1.086       .  S
C1057      C1058   1.346       .  D
C1057      H1059   1.086       .  S
C1058      H1060   1.087       .  S
C1061      C1062   1.353       .  D
C1061      H1063   1.086       .  S
C1062      H1064   1.087       .  S
C1065      C1066   1.339       .  D
C1065      H1067   1.087       .  S
C1066      H1068   1.087       .  S
C1069      C2158   1.347   1_545  D
C1069      H1071   1.086       .  S
C1070      C2157   1.347       .  D
C1070      H1072   1.087       .  S
C1073      C1074   1.339       .  D
C1073      H1075   1.086       .  S
C1074      H1076   1.087       .  S
C1077      C1078   1.358       .  D
C1077      H1079   1.087       .  S
C1078      H1080   1.086       .  S
C1081      C1082   1.343       .  D
C1081      H1083   1.087       .  S
C1082      H1084   1.087       .  S
C1085      C1086   1.349       .  D
C1085      H1087   1.086       .  S
C1086      H1088   1.088       .  S
O1089      C1104   1.260       .  A
O1089     Al1097   1.904       .  S
C1090      O1100   1.264       .  A
C1090      O1091   1.269       .  A
C1090      C2169   1.482       .  S
O1091     Al1093   1.943   1_455  S
O1092      C1094   1.259       .  A
O1092     Al1093   1.863       .  S
Al1093     O1101   1.904       .  S
Al1093     O1103   1.908       .  S
Al1093     O1102   1.782       .  S
C1094      O1107   1.266       .  A
C1094      C2157   1.458       .  S
O1095      C1105   1.256       .  A
O1095     Al1097   1.910   1_455  S
O1096      C1109   1.262       .  A
O1096     Al1106   1.884       .  S
Al1097     O1110   1.940       .  S
Al1097     O1107   1.917       .  S
Al1097     O1102   1.790       .  S
O1098      C1105   1.260       .  A
O1098     Al1106   1.915   1_455  S
O1099      C1108   1.262       .  A
O1099     Al1106   1.935       .  S
O1100     Al1106   1.899   1_455  S
O1101      C1108   1.259       .  A
O1102     Al1106   1.785       .  S
O1103      C1104   1.257       .  A
C1104      C2173   1.477       .  S
C1105      C2165   1.481       .  S
C1108      C2161   1.472       .  S
C1109      O1110   1.272       .  A
C1109      C2153   1.467       .  S
O1111      C1126   1.261       .  A
O1111     Al1119   1.904       .  S
C1112      O1122   1.261       .  A
C1112      O1113   1.268       .  A
C1112      C2145   1.482       .  S
O1113     Al1115   1.946       .  S
O1114      C1116   1.258       .  A
O1114     Al1115   1.852       .  S
Al1115     O1123   1.898       .  S
Al1115     O1125   1.911       .  S
Al1115     O1124   1.779       .  S
C1116      O1129   1.266       .  A
C1116      C2137   1.452       .  S
O1117      C1127   1.256       .  A
O1117     Al1119   1.896       .  S
O1118      C1131   1.260       .  A
O1118     Al1128   1.874       .  S
Al1119     O1132   1.935       .  S
Al1119     O1129   1.920       .  S
Al1119     O1124   1.791       .  S
O1120      C1127   1.261       .  A
O1120     Al1128   1.914       .  S
O1121      C1130   1.265       .  A
O1121     Al1128   1.940       .  S
O1122     Al1128   1.890       .  S
O1123      C1130   1.260       .  A
O1124     Al1128   1.780       .  S
O1125      C1126   1.258       .  A
C1126      C2149   1.475       .  S
C1127      C2141   1.472       .  S
C1130      C2162   1.475       .  S
C1131      O1132   1.271       .  A
C1131      C2133   1.460       .  S
O1133      C1148   1.265       .  A
O1133     Al1141   1.895       .  S
C1134      O1144   1.256       .  A
C1134      O1135   1.263       .  A
C1134      C2129   1.487       .  S
O1135     Al1137   1.925       .  S
O1136      C1138   1.254       .  A
O1136     Al1137   1.894       .  S
Al1137     O1145   1.899       .  S
Al1137     O1147   1.924       .  S
Al1137     O1146   1.789       .  S
C1138      O1151   1.256       .  A
C1138      C2125   1.473       .  S
O1139      C1149   1.271       .  A
O1139     Al1141   1.909       .  S
O1140      C1153   1.260       .  A
O1140     Al1150   1.922       .  S
Al1141     O1154   1.885       .  S
Al1141     O1151   1.919       .  S
Al1141     O1146   1.790       .  S
O1142      C1149   1.268       .  A
O1142     Al1150   1.901       .  S
O1143      C1152   1.263       .  A
O1143     Al1150   1.917       .  S
O1144     Al1150   1.889       .  S
O1145      C1152   1.257       .  A
O1146     Al1150   1.790       .  S
O1147      C1148   1.270       .  A
C1148      C2110   1.464       .  S
C1149      C2114   1.468   1_554  S
C1152      C2118   1.487       .  S
C1153      O1154   1.254       .  A
C1153      C2121   1.483       .  S
O1155      C1170   1.269       .  A
O1155     Al1163   1.945       .  S
C1156      O1166   1.261       .  A
C1156      O1157   1.262       .  A
C1156      C2106   1.488       .  S
O1157     Al1159   1.909       .  S
O1158      C1160   1.268       .  A
O1158     Al1159   1.949       .  S
Al1159     O1167   1.965       .  S
Al1159     O1169   1.882       .  S
Al1159     O1168   1.780       .  S
C1160      O1173   1.258       .  A
C1160      C2102   1.491       .  S
O1161      C1171   1.264       .  A
O1161     Al1163   1.919       .  S
O1162      C1175   1.258       .  A
O1162     Al1172   1.905       .  S
Al1163     O1176   1.912       .  S
Al1163     O1173   1.899       .  S
Al1163     O1168   1.794       .  S
O1164      C1171   1.257       .  A
O1164     Al1172   1.862       .  S
O1165      C1174   1.255       .  A
O1165     Al1172   1.872       .  S
O1166     Al1172   1.926       .  S
O1167      C1174   1.272       .  A
O1168     Al1172   1.787       .  S
O1169      C1170   1.258       .  A
C1170      C2093   1.470       .  S
C1171      C2138   1.456       .  S
C1174      C2117   1.481       .  S
C1175      O1176   1.265       .  A
C1175      C2098   1.474       .  S
O1177      C1192   1.256       .  A
O1177     Al1185   1.893       .  S
C1178      O1188   1.260       .  A
C1178      O1179   1.268       .  A
C1178      C2086   1.483       .  S
O1179     Al1181   1.943       .  S
O1180      C1182   1.255       .  A
O1180     Al1181   1.851       .  S
Al1181     O1189   1.895       .  S
Al1181     O1191   1.929       .  S
Al1181     O1190   1.788       .  S
C1182      O1195   1.264       .  A
C1182      C2073   1.445       .  S
O1183      C1193   1.257       .  A
O1183     Al1185   1.899       .  S
O1184      C1197   1.262       .  A
O1184     Al1194   1.870       .  S
Al1185     O1198   1.906       .  S
Al1185     O1195   1.909       .  S
Al1185     O1190   1.788       .  S
O1186      C1193   1.258       .  A
O1186     Al1194   1.904       .  S
O1187      C1196   1.264       .  A
O1187     Al1194   1.929       .  S
O1188     Al1194   1.886       .  S
O1189      C1196   1.261       .  A
O1190     Al1194   1.782       .  S
O1191      C1192   1.263       .  A
C1192      C2090   1.484       .  S
C1193      C2081   1.470       .  S
C1196      C2077   1.478       .  S
C1197      O1198   1.263       .  A
C1197      C2070   1.456       .  S
O1199      C1214   1.259       .  A
O1199     Al1207   1.891       .  S
C1200      O1210   1.262       .  A
C1200      O1201   1.264       .  A
C1200      C2061   1.475       .  S
O1201     Al1203   1.930       .  S
O1202      C1204   1.255       .  A
O1202     Al1203   1.853       .  S
Al1203     O1211   1.881       .  S
Al1203     O1213   1.916       .  S
Al1203     O1212   1.789       .  S
C1204      O1217   1.265       .  A
C1204      C2113   1.450       .  S
O1205      C1215   1.257       .  A
O1205     Al1207   1.899       .  S
O1206      C1219   1.258       .  A
O1206     Al1216   1.874       .  S
Al1207     O1220   1.927       .  S
Al1207     O1217   1.916       .  S
Al1207     O1212   1.789       .  S
O1208      C1215   1.265       .  A
O1208     Al1216   1.936       .  S
O1209      C1218   1.266       .  A
O1209     Al1216   1.941       .  S
O1210     Al1216   1.889       .  S
O1211      C1218   1.256       .  A
O1212     Al1216   1.781       .  S
O1213      C1214   1.260       .  A
C1214      C2065   1.472       .  S
C1215      C2058   1.485       .  S
C1218      C2078   1.469       .  S
C1219      O1220   1.269       .  A
C1219      C2053   1.459       .  S
O1221      C1236   1.265       .  A
O1221     Al1229   1.894       .  S
C1222      O1232   1.255       .  A
C1222      O1223   1.266       .  A
C1222      C2049   1.484       .  S
O1223     Al1225   1.936       .  S
O1224      C1226   1.255       .  A
O1224     Al1225   1.903       .  S
Al1225     O1233   1.915       .  S
Al1225     O1235   1.935       .  S
Al1225     O1234   1.790       .  S
C1226      O1239   1.254       .  A
C1226      C2045   1.473       .  S
O1227      C1237   1.271       .  A
O1227     Al1229   1.917       .  S
O1228      C1241   1.261       .  A
O1228     Al1238   1.922       .  S
Al1229     O1242   1.878       .  S
Al1229     O1239   1.905       .  S
Al1229     O1234   1.789       .  S
O1230      C1237   1.260       .  A
O1230     Al1238   1.868       .  S
O1231      C1240   1.253       .  A
O1231     Al1238   1.874       .  S
O1232     Al1238   1.878       .  S
O1233      C1240   1.260       .  A
O1234     Al1238   1.790       .  S
O1235      C1236   1.271       .  A
C1236      C2034   1.469       .  S
C1237      C2074   1.462       .  S
C1240      C2037   1.469       .  S
C1241      O1242   1.253       .  A
C1241      C2041   1.476       .  S
O1243      C1258   1.261       .  A
O1243     Al1251   1.900       .  S
C1244      O1254   1.260       .  A
C1244      O1245   1.257       .  A
C1244      C2030   1.481       .  S
O1245     Al1247   1.910   1_655  S
O1246      C1248   1.261       .  A
O1246     Al1247   1.889   1_655  S
Al1247     O1255   1.904       .  S
Al1247     O1257   1.891       .  S
Al1247     O1256   1.787       .  S
C1248      O1261   1.260       .  A
C1248      C2025   1.462       .  S
O1249      C1259   1.263   1_455  A
O1249     Al1251   1.901       .  S
O1250      C1263   1.266       .  A
O1250     Al1260   1.933       .  S
Al1251     O1264   1.882       .  S
Al1251     O1261   1.916   1_455  S
Al1251     O1256   1.780       .  S
O1252      C1259   1.259   1_455  A
O1252     Al1260   1.880       .  S
O1253      C1262   1.265       .  A
O1253     Al1260   1.906       .  S
O1254     Al1260   1.908   1_655  S
O1255      C1262   1.261       .  A
O1256     Al1260   1.785       .  S
O1257      C1258   1.259       .  A
C1258      C2018   1.456       .  S
C1259      C2158   1.461       .  S
C1262      C2038   1.479       .  S
C1263      O1264   1.259       .  A
C1263      C2021   1.489       .  S
O1265      C1280   1.269       .  A
C1266      O1276   1.257       .  A
C1266      O1267   1.260       .  A
C1266      C2130   1.489       .  S
O1267     Al1269   1.915   1_565  S
O1268      C1270   1.255       .  A
Al1269     O1277   1.906   1_545  S
Al1269     O1278   1.791   1_545  S
C1270      C2066   1.479       .  S
O1271      C1281   1.273   1_556  A
O1271     Al1273   1.911   1_556  S
O1272      C1285   1.260       .  A
O1272     Al1282   1.929       .  S
Al1273     O1286   1.878       .  S
Al1273     O1283   1.919   1_565  S
Al1273     O1278   1.790       .  S
O1274      C1281   1.268       .  A
O1274     Al1282   1.898       .  S
O1275      C1284   1.263       .  A
O1275     Al1282   1.908       .  S
O1276     Al1282   1.900       .  S
O1277      C1284   1.258       .  A
O1278     Al1282   1.788       .  S
O1279      C1280   1.268       .  A
C1280      C2001   1.478       .  S
C1281      C2005   1.469   1_554  S
C1284      C2010   1.489       .  S
C1285      O1286   1.251       .  A
C1285      C2014   1.487       .  S
O1287      C1302   1.266       .  A
C1288      O1298   1.256       .  A
C1288      O1289   1.269       .  A
C1288      C2105   1.484       .  S
O1289     Al1291   1.945   1_655  S
O1290      C1292   1.259       .  A
Al1291     O1299   1.939       .  S
Al1291     O1300   1.794       .  S
C1292      C2150   1.483       .  S
O1293      C1303   1.270       .  A
O1293     Al1295   1.928       .  S
O1294      C1307   1.263       .  A
O1294     Al1304   1.921       .  S
Al1295     O1308   1.870       .  S
Al1295     O1305   1.897   1_565  S
Al1295     O1300   1.794       .  S
O1296      C1303   1.255       .  A
O1296     Al1304   1.856       .  S
O1297      C1306   1.250       .  A
O1297     Al1304   1.872       .  S
O1298     Al1304   1.878   1_655  S
O1299      C1306   1.262       .  A
O1300     Al1304   1.795       .  S
O1301      C1302   1.267       .  A
C1302      C1989   1.469       .  S
C1303      C1993   1.469       .  S
C1306      C2009   1.479       .  S
C1307      O1308   1.254       .  A
C1307      C1998   1.472       .  S
O1309      C1324   1.264       .  A
O1309     Al1317   1.892       .  S
C1310      O1320   1.255       .  A
C1310      O1311   1.273       .  A
C1310      C1985   1.492       .  S
O1311     Al1313   1.964   1_455  S
O1312      C1314   1.251   1_455  A
O1312     Al1313   1.860   1_455  S
Al1313     O1321   1.886       .  S
Al1313     O1323   1.953       .  S
Al1313     O1322   1.790       .  S
C1314      O1327   1.259       .  A
C1314      C1994   1.451   1_655  S
O1315      C1325   1.261       .  A
O1315     Al1317   1.902   1_455  S
O1316      C1329   1.258       .  A
O1316     Al1326   1.869       .  S
Al1317     O1330   1.929       .  S
Al1317     O1327   1.906       .  S
Al1317     O1322   1.798       .  S
O1318      C1325   1.262       .  A
O1318     Al1326   1.914   1_455  S
O1319      C1328   1.262       .  A
O1319     Al1326   1.935       .  S
O1320     Al1326   1.876   1_455  S
O1321      C1328   1.254       .  A
O1322     Al1326   1.788       .  S
O1323      C1324   1.272       .  A
C1324      C2101   1.490       .  S
C1325      C1981   1.469       .  S
C1328      C1977   1.483       .  S
C1329      O1330   1.264       .  A
C1329      C2134   1.469       .  S
O1331      C1346   1.253       .  A
O1331     Al1339   1.866       .  S
C1332      O1342   1.264       .  A
C1332      O1333   1.258       .  A
C1332      C1973   1.481       .  S
O1333     Al1335   1.889       .  S
O1334      C1336   1.257       .  A
O1334     Al1335   1.881       .  S
Al1335     O1343   1.882       .  S
Al1335     O1345   1.916       .  S
Al1335     O1344   1.807       .  S
C1336      O1349   1.266       .  A
C1336      C1965   1.459       .  S
O1337      C1347   1.247       .  A
O1337     Al1339   1.885       .  S
O1338      C1351   1.267       .  A
O1338     Al1348   1.906       .  S
Al1339     O1352   1.901       .  S
Al1339     O1349   1.906       .  S
Al1339     O1344   1.798       .  S
O1340      C1347   1.259       .  A
O1340     Al1348   1.918       .  S
O1341      C1350   1.260       .  A
O1341     Al1348   1.928       .  S
O1342     Al1348   1.920       .  S
O1343      C1350   1.253       .  A
O1344     Al1348   1.795       .  S
O1345      C1346   1.260       .  A
C1346      C2026   1.472       .  S
C1347      C1969   1.480       .  S
C1350      C1978   1.493       .  S
C1351      O1352   1.266       .  A
C1351      C2154   1.474       .  S
O1353      C1368   1.268       .  A
C1354      O1364   1.266       .  A
C1354      O1355   1.263       .  A
C1354      C2050   1.488       .  S
O1355     Al1357   1.902   1_565  S
O1356      C1358   1.264       .  A
Al1357     O1365   1.945   1_545  S
Al1357     O1366   1.786   1_545  S
C1358      C2089   1.480       .  S
O1359      C1369   1.262       .  A
O1359     Al1361   1.903       .  S
O1360      C1373   1.262       .  A
O1360     Al1370   1.923       .  S
Al1361     O1374   1.902       .  S
Al1361     O1371   1.878       .  S
Al1361     O1366   1.784       .  S
O1362      C1369   1.260       .  A
O1362     Al1370   1.875       .  S
O1363      C1372   1.261       .  A
O1363     Al1370   1.884       .  S
O1364     Al1370   1.939       .  S
O1365      C1372   1.268       .  A
O1366     Al1370   1.783       .  S
O1367      C1368   1.257       .  A
C1368      C1949   1.455       .  S
C1369      C1953   1.452       .  S
C1372      C1957   1.484       .  S
C1373      O1374   1.263       .  A
C1373      C1961   1.482       .  S
O1375      C1390   1.265       .  A
C1376      O1386   1.263       .  A
C1376      O1377   1.258       .  A
C1376      C2029   1.480       .  S
O1377     Al1379   1.904       .  S
O1378      C1380   1.260       .  A
Al1379     O1387   1.922       .  S
Al1379     O1388   1.793       .  S
C1380      C2174   1.484       .  S
O1381      C1391   1.266       .  A
O1381     Al1383   1.923       .  S
O1382      C1395   1.272       .  A
O1382     Al1392   1.943       .  S
Al1383     O1396   1.898       .  S
Al1383     O1393   1.920       .  S
Al1383     O1388   1.794       .  S
O1384      C1391   1.253       .  A
O1384     Al1392   1.853       .  S
O1385      C1394   1.257       .  A
O1385     Al1392   1.896       .  S
O1386     Al1392   1.915       .  S
O1387      C1394   1.262       .  A
O1388     Al1392   1.791       .  S
O1389      C1390   1.266       .  A
C1390      C1941   1.462       .  S
C1391      C1966   1.466       .  S
C1394      C1958   1.476       .  S
C1395      O1396   1.260       .  A
C1395      C1945   1.497       .  S
O1397      C1412   1.258       .  A
O1397     Al1405   1.901       .  S
C1398      O1408   1.261       .  A
C1398      O1399   1.260       .  A
C1398      C1937   1.474       .  S
O1399     Al1401   1.917       .  S
O1400      C1402   1.259       .  A
O1400     Al1401   1.856       .  S
Al1401     O1409   1.883       .  S
Al1401     O1411   1.913       .  S
Al1401     O1410   1.780       .  S
C1402      O1415   1.266       .  A
C1402      C1954   1.461       .  S
O1403      C1413   1.259       .  A
O1403     Al1405   1.899       .  S
O1404      C1417   1.256       .  A
O1404     Al1414   1.875       .  S
Al1405     O1418   1.903       .  S
Al1405     O1415   1.930       .  S
Al1405     O1410   1.789       .  S
O1406      C1413   1.264       .  A
O1406     Al1414   1.921       .  S
O1407      C1416   1.268       .  A
O1407     Al1414   1.935       .  S
O1408     Al1414   1.900       .  S
O1409      C1416   1.260       .  A
O1410     Al1414   1.777       .  S
O1411      C1412   1.259       .  A
C1412      C2046   1.466       .  S
C1413      C1934   1.476       .  S
C1416      C1929   1.468       .  S
C1417      O1418   1.264       .  A
C1417      C2069   1.455       .  S
O1419      C1434   1.259       .  A
O1419     Al1427   1.902       .  S
C1420      O1430   1.260       .  A
C1420      O1421   1.261       .  A
C1420      C1925   1.476       .  S
O1421     Al1423   1.919       .  S
O1422      C1424   1.260       .  A
O1422     Al1423   1.874       .  S
Al1423     O1431   1.887       .  S
Al1423     O1433   1.895       .  S
Al1423     O1432   1.797       .  S
C1424      O1437   1.264       .  A
C1424      C2006   1.460   1_556  S
O1425      C1435   1.261       .  A
O1425     Al1427   1.912       .  S
O1426      C1439   1.262       .  A
O1426     Al1436   1.878       .  S
Al1427     O1440   1.912       .  S
Al1427     O1437   1.912       .  S
Al1427     O1432   1.792       .  S
O1428      C1435   1.255       .  A
O1428     Al1436   1.896       .  S
O1429      C1438   1.262       .  A
O1429     Al1436   1.923       .  S
O1430     Al1436   1.898       .  S
O1431      C1438   1.259       .  A
O1432     Al1436   1.789       .  S
O1433      C1434   1.255       .  A
C1434      C2126   1.466       .  S
C1435      C1921   1.477       .  S
C1438      C1930   1.473       .  S
C1439      O1440   1.263       .  A
C1439      C2054   1.466       .  S
O1441      C1456   1.268       .  A
O1441     Al1449   1.893       .  S
C1442      O1452   1.256       .  A
C1442      O1443   1.261       .  A
C1442      C1917   1.487       .  S
O1443     Al1445   1.916       .  S
O1444      C1446   1.253       .  A
O1444     Al1445   1.906       .  S
Al1445     O1453   1.908       .  S
Al1445     O1455   1.929       .  S
Al1445     O1454   1.790       .  S
C1446      O1459   1.252       .  A
C1446      C1913   1.475       .  S
O1447      C1457   1.273       .  A
O1447     Al1449   1.907       .  S
O1448      C1461   1.262       .  A
O1448     Al1458   1.933       .  S
Al1449     O1462   1.887       .  S
Al1449     O1459   1.912       .  S
Al1449     O1454   1.790       .  S
O1450      C1457   1.267       .  A
O1450     Al1458   1.886       .  S
O1451      C1460   1.263       .  A
O1451     Al1458   1.906       .  S
O1452     Al1458   1.895       .  S
O1453      C1460   1.259       .  A
O1454     Al1458   1.789       .  S
O1455      C1456   1.273       .  A
C1456      C2109   1.463       .  S
C1457      C1905   1.459   1_554  S
C1460      C1909   1.490       .  S
C1461      O1462   1.251       .  A
C1461      C2057   1.492       .  S
O1463      C1478   1.265       .  A
O1463     Al1471   1.904       .  S
C1464      O1474   1.257       .  A
C1464      O1465   1.266       .  A
C1464      C1902   1.486       .  S
O1465     Al1467   1.933       .  S
O1466      C1468   1.260       .  A
O1466     Al1467   1.912       .  S
Al1467     O1475   1.940       .  S
Al1467     O1477   1.914       .  S
Al1467     O1476   1.794       .  S
C1468      O1481   1.251       .  A
C1468      C1897   1.478       .  S
O1469      C1479   1.264       .  A
O1469     Al1471   1.910       .  S
O1470      C1483   1.264       .  A
O1470     Al1480   1.923       .  S
Al1471     O1484   1.880       .  S
Al1471     O1481   1.894       .  S
Al1471     O1476   1.800       .  S
O1472      C1479   1.254       .  A
O1472     Al1480   1.860       .  S
O1473      C1482   1.251       .  A
O1473     Al1480   1.873       .  S
O1474     Al1480   1.888       .  S
O1475      C1482   1.263       .  A
O1476     Al1480   1.802       .  S
O1477      C1478   1.267       .  A
C1478      C2094   1.480       .  S
C1479      C1894   1.459       .  S
C1482      C1910   1.481       .  S
C1483      O1484   1.257       .  A
C1483      C2142   1.483       .  S
O1485      C1500   1.257       .  A
O1485     Al1493   1.887       .  S
C1486      O1496   1.261       .  A
C1486      O1487   1.266       .  A
C1486      C2170   1.483       .  S
O1487     Al1489   1.934       .  S
O1488      C1490   1.255       .  A
O1488     Al1489   1.862       .  S
Al1489     O1497   1.890       .  S
Al1489     O1499   1.905       .  S
Al1489     O1498   1.795       .  S
C1490      O1503   1.260       .  A
C1490      C1881   1.449       .  S
O1491     Al1493   1.897       .  S
O1492      C1505   1.263       .  A
Al1493     O1503   1.895       .  S
Al1493     O1498   1.797       .  S
O1494      C1501   1.257       .  A
O1495      C1504   1.259       .  A
O1495     Al1502   1.918       .  S
O1496     Al1502   1.893       .  S
O1497      C1504   1.256       .  A
O1498     Al1502   1.791       .  S
O1499      C1500   1.258       .  A
C1500      C1890   1.471       .  S
C1501      C2022   1.472       .  S
C1504      C1885   1.475       .  S
C1505      O1506   1.264       .  A
C1505      C1878   1.471       .  S
O1507      C1522   1.261       .  A
O1507     Al1515   1.905       .  S
C1508      O1518   1.261       .  A
C1508      O1509   1.264       .  A
C1508      C2146   1.481       .  S
O1509     Al1511   1.928       .  S
O1510      C1512   1.255       .  A
O1510     Al1511   1.850       .  S
Al1511     O1519   1.877       .  S
Al1511     O1521   1.920       .  S
Al1511     O1520   1.785       .  S
C1512      O1525   1.266       .  A
C1512      C1893   1.453       .  S
O1513     Al1515   1.899       .  S
O1514      C1527   1.261       .  A
Al1515     O1525   1.929       .  S
Al1515     O1520   1.790       .  S
O1516      C1523   1.261       .  A
O1517      C1526   1.268       .  A
O1517     Al1524   1.941       .  S
O1518     Al1524   1.903       .  S
O1519      C1526   1.257       .  A
O1520     Al1524   1.777       .  S
O1521      C1522   1.261       .  A
C1522      C1874   1.471       .  S
C1523      C2097   1.482       .  S
C1526      C1886   1.470       .  S
C1527      O1528   1.266       .  A
C1527      C1869   1.452       .  S
O1529      C1544   1.266       .  A
O1529     Al1537   1.897       .  S
C1530      O1540   1.255       .  A
C1530      O1531   1.263       .  A
C1530      C1865   1.485       .  S
O1531     Al1533   1.927       .  S
O1532      C1534   1.253       .  A
O1532     Al1533   1.891       .  S
Al1533     O1541   1.901   1_655  S
Al1533     O1543   1.932   1_655  S
Al1533     O1542   1.793   1_655  S
C1534      O1547   1.255       .  A
C1534      C1862   1.473       .  S
O1535      C1545   1.272       .  A
O1535     Al1537   1.914       .  S
O1536      C1549   1.258       .  A
O1536     Al1546   1.919       .  S
Al1537     O1550   1.884       .  S
Al1537     O1547   1.916   1_455  S
Al1537     O1542   1.792       .  S
O1538      C1545   1.266       .  A
O1538     Al1546   1.890       .  S
O1539      C1548   1.260       .  A
O1539     Al1546   1.895       .  S
O1540     Al1546   1.885   1_655  S
O1541      C1548   1.256       .  A
O1542     Al1546   1.792       .  S
O1543      C1544   1.271       .  A
C1544      C2033   1.470       .  S
C1545      C1853   1.469   1_455  S
C1548      C1858   1.483       .  S
C1549      O1550   1.253       .  A
C1549      C2082   1.482       .  S
O1551      C1566   1.259       .  A
O1551     Al1559   1.897       .  S
C1552      O1562   1.263       .  A
C1552      O1553   1.260       .  A
C1552      C1849   1.480       .  S
O1553     Al1555   1.911       .  S
O1554      C1556   1.262       .  A
O1554     Al1555   1.906       .  S
Al1555     O1563   1.923       .  S
Al1555     O1565   1.882       .  S
Al1555     O1564   1.791       .  S
C1556      O1569   1.260       .  A
C1556      C1845   1.479       .  S
O1557      C1567   1.262       .  A
O1557     Al1559   1.910       .  S
O1558      C1571   1.270       .  A
O1558     Al1568   1.941       .  S
Al1559     O1572   1.889       .  S
Al1559     O1569   1.911       .  S
Al1559     O1564   1.790       .  S
O1560      C1567   1.254       .  A
O1560     Al1568   1.856       .  S
O1561      C1570   1.257       .  A
O1561     Al1568   1.894       .  S
O1562     Al1568   1.908       .  S
O1563      C1570   1.263       .  A
O1564     Al1568   1.791       .  S
O1565      C1566   1.258       .  A
C1566      C2017   1.455       .  S
C1567      C1882   1.463       .  S
C1570      C1857   1.475       .  S
C1571      O1572   1.260       .  A
C1571      C2166   1.493       .  S
O1573      C1588   1.258       .  A
O1573     Al1581   1.902       .  S
C1574      O1584   1.258       .  A
C1574      O1575   1.260       .  A
C1574      C2085   1.480       .  S
O1575     Al1577   1.918   1_455  S
O1576      C1578   1.261       .  A
O1576     Al1577   1.877       .  S
Al1577     O1585   1.882       .  S
Al1577     O1587   1.897       .  S
Al1577     O1586   1.795       .  S
C1578      O1591   1.264       .  A
C1578      C1854   1.457       .  S
O1579     Al1581   1.899   1_455  S
O1580      C1593   1.266       .  A
Al1581     O1591   1.913       .  S
Al1581     O1586   1.794       .  S
O1582      C1589   1.257       .  A
O1583      C1592   1.264       .  A
O1583     Al1590   1.922       .  S
O1584     Al1590   1.903   1_455  S
O1585      C1592   1.260       .  A
O1586     Al1590   1.786       .  S
O1587      C1588   1.256       .  A
C1588      C1841   1.461       .  S
C1589      C2042   1.470   1_545  S
C1592      C1837   1.472       .  S
C1593      O1594   1.264   1_565  A
C1593      C1834   1.464       .  S
O1595      C1610   1.262       .  A
O1595     Al1603   1.902       .  S
C1596      O1606   1.261       .  A
C1596      O1597   1.262       .  A
C1596      C2062   1.474       .  S
O1597     Al1599   1.922       .  S
O1598      C1600   1.256       .  A
O1598     Al1599   1.854       .  S
Al1599     O1607   1.872       .  S
Al1599     O1609   1.904       .  S
Al1599     O1608   1.785       .  S
C1600      O1613   1.265       .  A
C1600      C1906   1.454   1_556  S
O1601     Al1603   1.896       .  S
O1602      C1615   1.265       .  A
Al1603     O1613   1.924       .  S
Al1603     O1608   1.792       .  S
O1604      C1611   1.260   1_565  A
O1605      C1614   1.267       .  A
O1605     Al1612   1.937       .  S
O1606     Al1612   1.896       .  S
O1607      C1614   1.255       .  A
O1608     Al1612   1.781       .  S
O1609      C1610   1.257       .  A
C1610      C1829   1.472       .  S
C1611      C2122   1.472   1_545  S
C1614      C1838   1.465       .  S
C1615      O1616   1.263       .  A
C1615      C1825   1.476       .  S
O1617      C1632   1.259       .  A
O1617     Al1625   1.907       .  S
C1618      O1628   1.262       .  A
C1618      O1619   1.264       .  A
C1618      C1926   1.477       .  S
O1619     Al1621   1.933   1_455  S
O1620      C1622   1.261       .  A
O1620     Al1621   1.866       .  S
Al1621     O1629   1.900       .  S
Al1621     O1631   1.907       .  S
Al1621     O1630   1.781       .  S
C1622      O1635   1.270       .  A
C1622      C1818   1.467   1_556  S
O1623      C1633   1.258   1_655  A
O1623     Al1625   1.902       .  S
O1624      C1637   1.260       .  A
O1624     Al1634   1.887       .  S
Al1625     O1638   1.940       .  S
Al1625     O1635   1.941       .  S
Al1625     O1630   1.786       .  S
O1626      C1633   1.263       .  A
O1626     Al1634   1.917   1_455  S
O1627      C1636   1.266       .  A
O1627     Al1634   1.938       .  S
O1628     Al1634   1.895   1_455  S
O1629      C1636   1.262       .  A
O1630     Al1634   1.779       .  S
O1631      C1632   1.257       .  A
C1632      C1914   1.470       .  S
C1633      C2013   1.476       .  S
C1636      C1821   1.471       .  S
C1637      O1638   1.271       .  A
C1637      C1826   1.474       .  S
O1639      C1654   1.257       .  A
O1639     Al1647   1.897       .  S
C1640      O1650   1.266       .  A
C1640      O1641   1.267       .  A
C1640      C1938   1.474       .  S
O1641     Al1643   1.932       .  S
O1642      C1644   1.259       .  A
O1642     Al1643   1.859       .  S
Al1643     O1651   1.899       .  S
Al1643     O1653   1.896       .  S
Al1643     O1652   1.781       .  S
C1644      O1657   1.267       .  A
C1644      C1813   1.464       .  S
O1645      C1655   1.257       .  A
O1645     Al1647   1.904       .  S
O1646      C1659   1.262       .  A
O1646     Al1656   1.877       .  S
Al1647     O1660   1.928       .  S
Al1647     O1657   1.927       .  S
Al1647     O1652   1.786       .  S
O1648      C1655   1.260       .  A
O1648     Al1656   1.929       .  S
O1649      C1658   1.263       .  A
O1649     Al1656   1.939       .  S
O1650     Al1656   1.895       .  S
O1651      C1658   1.258       .  A
O1652     Al1656   1.784       .  S
O1653      C1654   1.254       .  A
C1654      C1861   1.467       .  S
C1655      C1962   1.487       .  S
C1658      C1822   1.474       .  S
C1659      O1660   1.271       .  A
C1659      C1833   1.455       .  S
O1661      C1676   1.267       .  A
O1661     Al1669   1.935       .  S
C1662      O1672   1.261       .  A
C1662      O1663   1.263       .  A
C1662      C1918   1.487       .  S
O1663     Al1665   1.917   1_655  S
O1664      C1666   1.262       .  A
O1664     Al1665   1.920   1_655  S
Al1665     O1673   1.933       .  S
Al1665     O1675   1.887       .  S
Al1665     O1674   1.787       .  S
C1666      O1679   1.260       .  A
C1666      C1830   1.479       .  S
O1667      C1677   1.266       .  A
O1667     Al1669   1.925       .  S
O1668      C1681   1.256       .  A
O1668     Al1678   1.904       .  S
Al1669     O1682   1.908       .  S
Al1669     O1679   1.896   1_455  S
Al1669     O1674   1.790       .  S
O1670      C1677   1.259   1_655  A
O1670     Al1678   1.871   1_655  S
O1671      C1680   1.254       .  A
O1671     Al1678   1.865       .  S
O1672     Al1678   1.921   1_655  S
O1673      C1680   1.266       .  A
O1674     Al1678   1.791       .  S
O1675      C1676   1.258       .  A
C1676      C2002   1.470       .  S
C1677      C1817   1.464   1_454  S
C1680      C1810   1.464       .  S
C1681      O1682   1.263       .  A
C1681      C1922   1.475       .  S
O1683      C1698   1.264       .  A
O1683     Al1691   1.899       .  S
C1684      O1694   1.255       .  A
C1684      O1685   1.264       .  A
C1684      C1901   1.486       .  S
O1685     Al1687   1.929       .  S
O1686      C1688   1.259       .  A
O1686     Al1687   1.908       .  S
Al1687     O1695   1.911       .  S
Al1687     O1697   1.925       .  S
Al1687     O1696   1.789       .  S
C1688      O1701   1.257       .  A
C1688      C1873   1.477       .  S
O1689      C1699   1.270       .  A
O1689     Al1691   1.914       .  S
O1690      C1703   1.260       .  A
O1690     Al1700   1.918       .  S
Al1691     O1704   1.883       .  S
Al1691     O1701   1.915       .  S
Al1691     O1696   1.785       .  S
O1692      C1699   1.258       .  A
O1692     Al1700   1.866       .  S
O1693      C1702   1.257       .  A
O1693     Al1700   1.878       .  S
O1694     Al1700   1.887       .  S
O1695      C1702   1.260       .  A
O1696     Al1700   1.793       .  S
O1697      C1698   1.267       .  A
C1698      C1990   1.467       .  S
C1699      C1805   1.459       .  S
C1702      C1809   1.478       .  S
C1703      O1704   1.256       .  A
C1703      C1982   1.482       .  S
O1705      C1720   1.254       .  A
O1705     Al1713   1.868       .  S
C1706      O1716   1.256       .  A
C1706      O1707   1.264       .  A
C1706      C1986   1.494       .  S
O1707     Al1709   1.930       .  S
O1708      C1710   1.255       .  A
O1708     Al1709   1.860       .  S
Al1709     O1717   1.903       .  S
Al1709     O1719   1.942       .  S
Al1709     O1718   1.791       .  S
C1710      O1723   1.266       .  A
C1710      C1806   1.457       .  S
O1711      C1721   1.254       .  A
O1711     Al1713   1.894       .  S
O1712      C1725   1.257       .  A
O1712     Al1722   1.867       .  S
Al1713     O1726   1.915       .  S
Al1713     O1723   1.908       .  S
Al1713     O1718   1.795       .  S
O1714      C1721   1.262       .  A
O1714     Al1722   1.903       .  S
O1715      C1724   1.260       .  A
O1715     Al1722   1.913       .  S
O1716     Al1722   1.905       .  S
O1717      C1724   1.262       .  A
O1718     Al1722   1.789       .  S
O1719      C1720   1.269       .  A
C1720      C1898   1.486       .  S
C1721      C1997   1.465       .  S
C1724      C1801   1.486       .  S
C1725      O1726   1.265       .  A
C1725      C1870   1.469       .  S
O1727      C1742   1.260       .  A
O1727     Al1735   1.896       .  S
C1728      O1738   1.261       .  A
C1728      O1729   1.265       .  A
C1728      C1974   1.484       .  S
O1729     Al1731   1.935       .  S
O1730      C1732   1.256       .  A
O1730     Al1731   1.860       .  S
Al1731     O1739   1.870       .  S
Al1731     O1741   1.912       .  S
Al1731     O1740   1.791       .  S
C1732      O1745   1.265       .  A
C1732      C1797   1.451       .  S
O1733      C1743   1.259       .  A
O1733     Al1735   1.908       .  S
O1734      C1747   1.255       .  A
O1734     Al1744   1.868       .  S
Al1735     O1748   1.934       .  S
Al1735     O1745   1.914       .  S
Al1735     O1740   1.794       .  S
O1736      C1743   1.266       .  A
O1736     Al1744   1.936       .  S
O1737      C1746   1.267       .  A
O1737     Al1744   1.948       .  S
O1738     Al1744   1.894       .  S
O1739      C1746   1.253       .  A
O1740     Al1744   1.784       .  S
O1741      C1742   1.259       .  A
C1742      C1846   1.472       .  S
C1743      C1946   1.489       .  S
C1746      C1802   1.475       .  S
C1747      O1748   1.268       .  A
C1747      C1877   1.462       .  S
O1749      C1764   1.266       .  A
O1749     Al1757   1.892       .  S
C1750      O1760   1.256       .  A
C1750      O1751   1.261       .  A
C1750      C1866   1.487       .  S
O1751     Al1753   1.915       .  S
O1752      C1754   1.253       .  A
O1752     Al1753   1.897       .  S
Al1753     O1761   1.891       .  S
Al1753     O1763   1.920       .  S
Al1753     O1762   1.787       .  S
C1754      O1767   1.253       .  A
C1754      C1842   1.462       .  S
O1755      C1765   1.269       .  A
O1755     Al1757   1.896       .  S
O1756      C1769   1.261       .  A
O1756     Al1766   1.926       .  S
Al1757     O1770   1.884       .  S
Al1757     O1767   1.907       .  S
Al1757     O1762   1.791       .  S
O1758      C1765   1.268       .  A
O1758     Al1766   1.909       .  S
O1759      C1768   1.266       .  A
O1759     Al1766   1.918       .  S
O1760     Al1766   1.896       .  S
O1761      C1768   1.256       .  A
O1762     Al1766   1.789       .  S
O1763      C1764   1.271       .  A
C1764      C1950   1.468       .  S
C1765      C1814   1.462       .  S
C1768      C1793   1.485       .  S
C1769      O1770   1.254       .  A
C1769      C1933   1.486       .  S
O1771      C1786   1.261       .  A
O1771     Al1779   1.908       .  S
C1772      O1782   1.263       .  A
C1772      O1773   1.260       .  A
C1772      C1850   1.480       .  S
O1773     Al1775   1.910       .  S
O1774      C1776   1.262       .  A
O1774     Al1775   1.909       .  S
Al1775     O1783   1.935       .  S
Al1775     O1785   1.885       .  S
Al1775     O1784   1.797       .  S
C1776      O1789   1.257       .  A
C1776      C1889   1.478       .  S
O1777      C1787   1.265       .  A
O1777     Al1779   1.926       .  S
O1778      C1791   1.272       .  A
O1778     Al1788   1.941       .  S
Al1779     O1792   1.880       .  S
Al1779     O1789   1.898       .  S
Al1779     O1784   1.797       .  S
O1780      C1787   1.249       .  A
O1780     Al1788   1.836       .  S
O1781      C1790   1.252       .  A
O1781     Al1788   1.878       .  S
O1782     Al1788   1.908       .  S
O1783      C1790   1.264       .  A
O1784     Al1788   1.792       .  S
O1785      C1786   1.258       .  A
C1786      C1942   1.463       .  S
C1787      C1798   1.468       .  S
C1790      C1794   1.477       .  S
C1791      O1792   1.258       .  A
C1791      C1970   1.485       .  S
C1793      C1794   1.339       .  D
C1793      H1795   1.086       .  S
C1794      H1796   1.087       .  S
C1797      C1798   1.354       .  D
C1797      H1799   1.087       .  S
C1798      H1800   1.086       .  S
C1801      C1802   1.346       .  D
C1801      H1803   1.086       .  S
C1802      H1804   1.087       .  S
C1805      C1806   1.354       .  D
C1805      H1807   1.086       .  S
C1806      H1808   1.086       .  S
C1809      C1810   1.345       .  D
C1809      H1811   1.087       .  S
C1810      H1812   1.087       .  S
C1813      C1814   1.347       .  D
C1813      H1815   1.086       .  S
C1814      H1816   1.087       .  S
C1817      C1818   1.348   1_556  D
C1817      H1819   1.087       .  S
C1818      H1820   1.087       .  S
C1821      C1822   1.341       .  D
C1821      H1823   1.086       .  S
C1822      H1824   1.087       .  S
C1825      C1826   1.341       .  D
C1825      H1827   1.087       .  S
C1826      H1828   1.087       .  S
C1829      C1830   1.346   1_556  D
C1829      H1831   1.086       .  S
C1830      H1832   1.087       .  S
C1833      C1834   1.339       .  D
C1833      H1835   1.087       .  S
C1834      H1836   1.087       .  S
C1837      C1838   1.339       .  D
C1837      H1839   1.087       .  S
C1838      H1840   1.087       .  S
C1841      C1842   1.345       .  D
C1841      H1843   1.086       .  S
C1842      H1844   1.088       .  S
C1845      C1846   1.349       .  D
C1845      H1847   1.088       .  S
C1846      H1848   1.086       .  S
C1849      C1850   1.341       .  D
C1849      H1851   1.087       .  S
C1850      H1852   1.087       .  S
C1853      C1854   1.348       .  D
C1853      H1855   1.087       .  S
C1854      H1856   1.086   1_655  S
C1857      C1858   1.343       .  D
C1857      H1859   1.087       .  S
C1858      H1860   1.086       .  S
C1861      C1862   1.346       .  D
C1861      H1863   1.086       .  S
C1862      H1864   1.088       .  S
C1865      C1866   1.347       .  D
C1865      H1867   1.087       .  S
C1866      H1868   1.087       .  S
C1869      C1870   1.347       .  D
C1869      H1871   1.087       .  S
C1870      H1872   1.086       .  S
C1873      C1874   1.350       .  D
C1873      H1875   1.088       .  S
C1874      H1876   1.086       .  S
C1877      C1878   1.339       .  D
C1877      H1879   1.087       .  S
C1878      H1880   1.087       .  S
C1881      C1882   1.348       .  D
C1881      H1883   1.087       .  S
C1882      H1884   1.086       .  S
C1885      C1886   1.340       .  D
C1885      H1887   1.087       .  S
C1886      H1888   1.087       .  S
C1889      C1890   1.350       .  D
C1889      H1891   1.087       .  S
C1890      H1892   1.086       .  S
C1893      C1894   1.349       .  D
C1893      H1895   1.086       .  S
C1894      H1896   1.087       .  S
C1897      C1898   1.360       .  D
C1897      H1899   1.087       .  S
C1898      H1900   1.086       .  S
C1901      C1902   1.346       .  D
C1901      H1903   1.087       .  S
C1902      H1904   1.087       .  S
C1905      C1906   1.348   1_556  D
C1905      H1907   1.087       .  S
C1906      H1908   1.086       .  S
C1909      C1910   1.343       .  D
C1909      H1911   1.086       .  S
C1910      H1912   1.087       .  S
C1913      C1914   1.349   1_554  D
C1913      H1915   1.088       .  S
C1914      H1916   1.086       .  S
C1917      C1918   1.346       .  D
C1917      H1919   1.087       .  S
C1918      H1920   1.087       .  S
C1921      C1922   1.342   1_556  D
C1921      H1923   1.088       .  S
C1922      H1924   1.086       .  S
C1925      C1926   1.343       .  D
C1925      H1927   1.087       .  S
C1926      H1928   1.087       .  S
C1929      C1930   1.340       .  D
C1929      H1931   1.087       .  S
C1930      H1932   1.087       .  S
C1933      C1934   1.354       .  D
C1933      H1935   1.086       .  S
C1934      H1936   1.087       .  S
C1937      C1938   1.340       .  D
C1937      H1939   1.087       .  S
C1938      H1940   1.087       .  S
C1941      C1942   1.345       .  D
C1941      H1943   1.087       .  S
C1942      H1944   1.087       .  S
C1945      C1946   1.361       .  D
C1945      H1947   1.086       .  S
C1946      H1948   1.087       .  S
C1949      C1950   1.339       .  D
C1949      H1951   1.087       .  S
C1950      H1952   1.087       .  S
C1953      C1954   1.342       .  D
C1953      H1955   1.088       .  S
C1954      H1956   1.087       .  S
C1957      C1958   1.345       .  D
C1957      H1959   1.086       .  S
C1958      H1960   1.087       .  S
C1961      C1962   1.351       .  D
C1961      H1963   1.086       .  S
C1962      H1964   1.087       .  S
C1965      C1966   1.355       .  D
C1965      H1967   1.087       .  S
C1966      H1968   1.086       .  S
C1969      C1970   1.361       .  D
C1969      H1971   1.087       .  S
C1970      H1972   1.086       .  S
C1973      C1974   1.347       .  D
C1973      H1975   1.087       .  S
C1974      H1976   1.086       .  S
C1977      C1978   1.352       .  D
C1977      H1979   1.087       .  S
C1978      H1980   1.086       .  S
C1981      C1982   1.350       .  D
C1981      H1983   1.087       .  S
C1982      H1984   1.086       .  S
C1985      C1986   1.344       .  D
C1985      H1987   1.087       .  S
C1986      H1988   1.087       .  S
C1989      C1990   1.343       .  D
C1989      H1991   1.087       .  S
C1990      H1992   1.087       .  S
C1993      C1994   1.353       .  D
C1993      H1995   1.087   1_455  S
C1994      H1996   1.086       .  S
C1997      C1998   1.355       .  D
C1997      H1999   1.088       .  S
C1998      H2000   1.086       .  S
C2001      C2002   1.346       .  D
C2001      H2003   1.087       .  S
C2002      H2004   1.087       .  S
C2005      C2006   1.348   1_556  D
C2005      H2007   1.087       .  S
C2006      H2008   1.086       .  S
C2009      C2010   1.344       .  D
C2009      H2011   1.087       .  S
C2010      H2012   1.086   1_565  S
C2013      C2014   1.355   1_556  D
C2013      H2015   1.087       .  S
C2014      H2016   1.086       .  S
C2017      C2018   1.343       .  D
C2017      H2019   1.087       .  S
C2018      H2020   1.087       .  S
C2021      C2022   1.353       .  D
C2021      H2023   1.086       .  S
C2022      H2024   1.087       .  S
C2025      C2026   1.351       .  D
C2025      H2027   1.088       .  S
C2026      H2028   1.086       .  S
C2029      C2030   1.340       .  D
C2029      H2031   1.087       .  S
C2030      H2032   1.087       .  S
C2033      C2034   1.341       .  D
C2033      H2035   1.087       .  S
C2034      H2036   1.087       .  S
C2037      C2038   1.343       .  D
C2037      H2039   1.087       .  S
C2038      H2040   1.086       .  S
C2041      C2042   1.354       .  D
C2041      H2043   1.086       .  S
C2042      H2044   1.088       .  S
C2045      C2046   1.347       .  D
C2045      H2047   1.088       .  S
C2046      H2048   1.086       .  S
C2049      C2050   1.346       .  D
C2049      H2051   1.087       .  S
C2050      H2052   1.086       .  S
C2053      C2054   1.339       .  D
C2053      H2055   1.087       .  S
C2054      H2056   1.088       .  S
C2057      C2058   1.359   1_554  D
C2057      H2059   1.086       .  S
C2058      H2060   1.087       .  S
C2061      C2062   1.342       .  D
C2061      H2063   1.087       .  S
C2062      H2064   1.087       .  S
C2065      C2066   1.350   1_556  D
C2065      H2067   1.086       .  S
C2066      H2068   1.088       .  S
C2069      C2070   1.337       .  D
C2069      H2071   1.087       .  S
C2070      H2072   1.087       .  S
C2073      H2075   1.087       .  S
C2074      H2076   1.087       .  S
C2077      C2078   1.341       .  D
C2077      H2079   1.087       .  S
C2078      H2080   1.086       .  S
C2081      C2082   1.352       .  D
C2081      H2083   1.087       .  S
C2082      H2084   1.086       .  S
C2085      C2086   1.347       .  D
C2085      H2087   1.087       .  S
C2086      H2088   1.086       .  S
C2089      C2090   1.345       .  D
C2089      H2091   1.086       .  S
C2090      H2092   1.087       .  S
C2093      C2094   1.345       .  D
C2093      H2095   1.086       .  S
C2094      H2096   1.087       .  S
C2097      C2098   1.346       .  D
C2097      H2099   1.087       .  S
C2098      H2100   1.086       .  S
C2101      C2102   1.357       .  D
C2101      H2103   1.086       .  S
C2102      H2104   1.087       .  S
C2105      C2106   1.344       .  D
C2105      H2107   1.087       .  S
C2106      H2108   1.086       .  S
C2109      C2110   1.340       .  D
C2109      H2111   1.087       .  S
C2110      H2112   1.087       .  S
C2113      H2115   1.087   1_556  S
C2114      H2116   1.087       .  S
C2117      C2118   1.342       .  D
C2117      H2119   1.087       .  S
C2118      H2120   1.086       .  S
C2121      C2122   1.352   1_554  D
C2121      H2123   1.086       .  S
C2125      C2126   1.346   1_554  D
C2125      H2127   1.088       .  S
C2126      H2128   1.086       .  S
C2129      C2130   1.349       .  D
C2129      H2131   1.087       .  S
C2130      H2132   1.087       .  S
C2133      C2134   1.343       .  D
C2133      H2135   1.087       .  S
C2134      H2136   1.087       .  S
C2137      H2139   1.087       .  S
C2138      H2140   1.087       .  S
C2141      C2142   1.353       .  D
C2141      H2143   1.087       .  S
C2142      H2144   1.086       .  S
C2145      C2146   1.347       .  D
C2145      H2147   1.086       .  S
C2146      H2148   1.087       .  S
C2149      C2150   1.353       .  D
C2149      H2151   1.086       .  S
C2150      H2152   1.088       .  S
C2153      C2154   1.342       .  D
C2153      H2155   1.087       .  S
C2154      H2156   1.087       .  S
C2157      H2159   1.087   1_655  S
C2158      H2160   1.087       .  S
C2161      C2162   1.342       .  D
C2161      H2163   1.087       .  S
C2162      H2164   1.087       .  S
C2165      C2166   1.357       .  D
C2165      H2167   1.087       .  S
C2166      H2168   1.086       .  S
C2169      C2170   1.347       .  D
C2169      H2171   1.087       .  S
C2170      H2172   1.087       .  S
C2173      C2174   1.352       .  D
C2173      H2175   1.086       .  S
C2174      H2176   1.088       .  S
