geometry optimzed in LAMMPS
_audit_creation_date              2020-12-01 
_audit_creation_method            'lammps2cif' 
_symmetry_space_group_name_H-M    'P1' 
_symmetry_Int_Tables_number       1 
_symmetry_cell_setting            triclinic 
loop_ 
_symmetry_equiv_pos_as_xyz 
  x,y,z 
_cell_length_a                    50.46834526 
_cell_length_b                    38.37433863929548 
_cell_length_c                    62.64405668231778 
_cell_angle_alpha                 89.98754686038778 
_cell_angle_beta                  89.9437070482625 
_cell_angle_gamma                 90.03195793598927 
loop_ 
_atom_site_label 
_atom_site_type_symbol 
_atom_site_fract_x 
_atom_site_fract_y 
_atom_site_fract_z 
_atom_site_charge 
Fe1        Fe  0.91088192  0.21197912  0.97364980     1.65800
Fe2        Fe  0.87938394  0.18724853  0.01936564     1.73200
Fe3        Fe  0.93110076  0.13815335  0.00008464     1.54400
O4          O  0.92712528  0.12471478  0.96762625    -0.81400
O5          O  0.90368616  0.17630316  0.04471777    -0.79700
O6          O  0.91632302  0.17391351  0.95113542    -0.83900
O7          O  0.95084633  0.21721872  0.97872265    -0.78700
O8          O  0.89981456  0.10373406  0.00556522    -0.80500
O9          O  0.88839152  0.23972076  0.02344153    -0.83300
C10         C  0.96922245  0.19914490  0.98696868     0.97500
C11         C  0.92128566  0.14165706  0.95080010     1.04900
O12         O  0.90723008  0.17911883  0.99778440    -1.12200
O13         O  0.85110938  0.19888196  0.99691258    -0.74700
O14         O  0.87118952  0.21010801  0.96609840    -0.78200
O15         O  0.96506064  0.16898106  0.99497365    -0.78900
C16         C  0.85038083  0.20599294  0.97717182     0.96400
O17         O  0.90547828  0.25565868  0.99227866    -0.76800
O18         O  0.86659732  0.13624502  0.01775700    -0.82000
C19         C  0.92476928  0.15927904  0.04813593     0.99000
C20         C  0.87602091  0.10698976  0.01204320     1.04900
O21         O  0.93740635  0.14445865  0.03302605    -0.77600
C22         C  0.89735789  0.26293899  0.01089698     1.03200
Fe23       Fe  0.86343755  0.20674405  0.78165222     1.65800
Fe24       Fe  0.89553651  0.17908965  0.73680887     1.73200
Fe25       Fe  0.84363162  0.13130764  0.75646419     1.54400
O26         O  0.84873534  0.11958472  0.78925184    -0.81400
O27         O  0.86964189  0.17260388  0.71194495    -0.79700
O28         O  0.86198105  0.16898515  0.80472270    -0.83900
O29         O  0.82270921  0.20881338  0.77883950    -0.78700
O30         O  0.87433172  0.09596993  0.75106119    -0.80500
O31         O  0.89003321  0.23235488  0.73431867    -0.83300
C32         C  0.80467462  0.19072916  0.77011974     0.97500
C33         C  0.85687540  0.13673940  0.80547008     1.04900
O34         O  0.86744949  0.17237044  0.75827728    -1.12200
O35         O  0.92430050  0.18617612  0.75950714    -0.74700
O36         O  0.90380273  0.21004683  0.78738485    -0.78200
O37         O  0.80951356  0.16148063  0.76132436    -0.78900
C38         C  0.92471960  0.20039013  0.77776533     0.96400
O39         O  0.86517321  0.24908304  0.76164515    -0.76800
O40         O  0.90618668  0.12734367  0.73607584    -0.82000
C41         C  0.84860109  0.15540552  0.70853701     0.99000
C42         C  0.89714626  0.09843502  0.74259531     1.04900
O43         O  0.83710937  0.13787055  0.72328469    -0.77600
C44         C  0.87804863  0.25584416  0.74476308     1.03200
Fe45       Fe  0.61862341  0.31224619  0.97693663     1.65800
Fe46       Fe  0.65898380  0.34214833  0.01510198     1.73200
Fe47       Fe  0.60551326  0.38972762  0.00001203     1.54400
O48         O  0.59728992  0.39126772  0.96712863    -0.81400
O49         O  0.63774416  0.35041779  0.04231837    -0.79700
O50         O  0.62006966  0.34736384  0.95268188    -0.83900
O51         O  0.57828784  0.31922437  0.98045649    -0.78700
O52         O  0.63787673  0.42232471  0.99479912    -0.80500
O53         O  0.65245638  0.28870764  0.01950455    -0.83300
C54         C  0.56342860  0.33427227  0.99394023     0.97500
C55         C  0.60667414  0.37509337  0.95101177     1.04900
O56         O  0.62774236  0.34821676  0.99743272    -1.12200
O57         O  0.68295048  0.33337494  0.98919658    -0.74700
O58         O  0.65740701  0.29872806  0.96996450    -0.78200
O59         O  0.57179033  0.35936469  0.00545266    -0.78900
C60         C  0.68000125  0.31105787  0.97449893     0.96400
O61         O  0.61674935  0.27545375  0.00042202    -0.76800
O62         O  0.66949791  0.39459391  0.01296577    -0.82000
C63         C  0.62260656  0.37548360  0.04708320     0.99000
C64         C  0.66100756  0.42128569  0.00295706     1.04900
O65         O  0.61105285  0.39420356  0.03311075    -0.77600
C66         C  0.63397112  0.26767493  0.01435482     1.03200
Fe67       Fe  0.66563453  0.30426386  0.26810560     1.65800
Fe68       Fe  0.62263050  0.33593089  0.23251413     1.73200
Fe69       Fe  0.67339451  0.38639794  0.24940267     1.54400
O70         O  0.68115790  0.38486821  0.28255160    -0.81400
O71         O  0.64302252  0.34819171  0.20555677    -0.79700
O72         O  0.66378343  0.33498133  0.29428224    -0.83900
O73         O  0.70532686  0.31526288  0.26404895    -0.78700
O74         O  0.63947419  0.41486315  0.25619847    -0.80500
O75         O  0.63036948  0.28348796  0.22629993    -0.83300
C76         C  0.71887469  0.33485634  0.25191391     0.97500
C77         C  0.67351584  0.36485270  0.29770017     1.04900
O78         O  0.65397088  0.34237689  0.24997117    -1.12200
O79         O  0.60039976  0.32353341  0.25860011    -0.74700
O80         O  0.62749365  0.28709658  0.27525993    -0.78200
O81         O  0.70888679  0.36102829  0.24239201    -0.78900
C82         C  0.60455089  0.29969530  0.27216065     0.96400
O83         O  0.66823485  0.27132957  0.24270406    -0.76800
O84         O  0.60993741  0.38708358  0.23622678    -0.82000
C85         C  0.65638123  0.37538841  0.20175252     0.99000
C86         C  0.61675637  0.41317931  0.24749538     1.04900
O87         O  0.66708012  0.39376859  0.21641035    -0.77600
C88         C  0.64985206  0.26331420  0.22988751     1.03200
Fe89       Fe  0.36839017  0.21636704  0.27530651     1.65800
Fe90       Fe  0.39830203  0.18713342  0.22992619     1.73200
Fe91       Fe  0.34748160  0.13980224  0.25201002     1.54400
O92         O  0.35371654  0.12959065  0.28471031    -0.81400
O93         O  0.37233540  0.17627341  0.20597086    -0.79700
O94         O  0.36632249  0.18012648  0.29899238    -0.83900
O95         O  0.32792503  0.21941149  0.27262368    -0.78700
O96         O  0.37826373  0.10453317  0.24620936    -0.80500
O97         O  0.39037018  0.23936785  0.22521495    -0.83300
C98         C  0.30939255  0.20053875  0.26537493     0.97500
C99         C  0.36154104  0.14794924  0.30046598     1.04900
O100        O  0.37127966  0.18106646  0.25236231    -1.12200
O101        O  0.42768811  0.19814486  0.25134248    -0.74700
O102        O  0.40866589  0.21753272  0.28098388    -0.78200
O103        O  0.31357452  0.17038461  0.25747133    -0.78900
C104        C  0.42908038  0.20930130  0.27030861     0.96400
O105        O  0.37057424  0.25785905  0.25474330    -0.76800
O106        O  0.41024665  0.13616431  0.23138434    -0.82000
C107        C  0.35102192  0.15941415  0.20353326     0.99000
C108        C  0.40118181  0.10727403  0.23785500     1.04900
O109        O  0.33940946  0.14422585  0.21910113    -0.77600
C110        C  0.37996574  0.26334910  0.23629697     1.03200
Fe111      Fe  0.41409631  0.22591980  0.47659687     1.65800
Fe112      Fe  0.38166769  0.19481305  0.52045305     1.73200
Fe113      Fe  0.43185940  0.14664810  0.49797631     1.54400
O114        O  0.42578986  0.13872580  0.46513161    -0.81400
O115        O  0.40650255  0.17982193  0.54461342    -0.79700
O116        O  0.41599764  0.19106578  0.45179591    -0.83900
O117        O  0.45436486  0.22622599  0.48009199    -0.78700
O118        O  0.40012109  0.11273497  0.50330231    -0.80500
O119        O  0.39208900  0.24561773  0.52734640    -0.83300
C120        C  0.47227699  0.20567068  0.48651619     0.97500
C121        C  0.41997391  0.15868238  0.44953909     1.04900
O122        O  0.40920654  0.18901521  0.49832936    -1.12200
O123        O  0.35326568  0.21065925  0.49894726    -0.74700
O124        O  0.37411643  0.23087560  0.47023892    -0.78200
O125        O  0.46694038  0.17499998  0.49302525    -0.78900
C126        C  0.35303203  0.22404510  0.48043842     0.96400
O127        O  0.41305887  0.26566282  0.49868019    -0.76800
O128        O  0.36760567  0.14485584  0.51688443    -0.82000
C129        C  0.42797286  0.16307803  0.54666229     0.99000
C130        C  0.37669759  0.11580017  0.51061909     1.04900
O131        O  0.43991706  0.14930981  0.53081283    -0.77600
C132        C  0.40414899  0.26967765  0.51744240     1.03200
Fe133      Fe  0.16301224  0.29898724  0.77035052     1.65800
Fe134      Fe  0.12551586  0.33574327  0.73260729     1.73200
Fe135      Fe  0.17787922  0.38009460  0.75259308     1.54400
O136        O  0.18462329  0.37650199  0.78576889    -0.81400
O137        O  0.14945488  0.34580842  0.70726633    -0.79700
O138        O  0.16249646  0.32974899  0.79673896    -0.83900
O139        O  0.20373846  0.30460024  0.76719967    -0.78700
O140        O  0.14539190  0.41206719  0.75858863    -0.80500
O141        O  0.13004161  0.28244073  0.72607579    -0.83300
C142        C  0.21933340  0.32263772  0.75563856     0.97500
C143        C  0.17562673  0.35711281  0.80069723     1.04900
O144        O  0.15545403  0.33841998  0.75194161    -1.12200
O145        O  0.09974397  0.32524388  0.75690816    -0.74700
O146        O  0.12305227  0.28738818  0.77592665    -0.78200
O147        O  0.21177057  0.35058895  0.74647527    -0.78900
C148        C  0.10106574  0.30138825  0.77085111     0.96400
O149        O  0.16445446  0.26519007  0.74521529    -0.76800
O150        O  0.11612746  0.38845575  0.73634928    -0.82000
C151        C  0.16357603  0.37258320  0.70427521     0.99000
C152        C  0.12344451  0.41325931  0.74856407     1.04900
O153        O  0.17378326  0.38985080  0.71961647    -0.77600
C154        C  0.14725655  0.25954036  0.73093840     1.03200
Fe155      Fe  0.11505379  0.32282901  0.48179136     1.65800
Fe156      Fe  0.15204880  0.34917887  0.52284983     1.73200
Fe157      Fe  0.10074756  0.39827645  0.50643078     1.54400
O158        O  0.09218251  0.40067784  0.47355540    -0.81400
O159        O  0.12803975  0.35514614  0.54874280    -0.79700
O160        O  0.11793282  0.36009087  0.45905429    -0.83900
O161        O  0.07426009  0.32979018  0.48491245    -0.78700
O162        O  0.13349900  0.42981145  0.50143355    -0.80500
O163        O  0.14541740  0.29569172  0.52534589    -0.83300
C164        C  0.05974342  0.34241074  0.49966764     0.97500
C165        C  0.10348939  0.38680095  0.45746000     1.04900
O166        O  0.12277935  0.35678868  0.50367169    -1.12200
O167        O  0.17820682  0.34238177  0.49828617    -0.74700
O168        O  0.15473823  0.31055401  0.47566766    -0.78200
O169        O  0.06777886  0.36692946  0.51178292    -0.78900
C170        C  0.17681578  0.32246413  0.48220871     0.96400
O171        O  0.11185869  0.28387521  0.50362330    -0.76800
O172        O  0.16229559  0.40179155  0.52238300    -0.82000
C173        C  0.11577008  0.38267492  0.55359481     0.99000
C174        C  0.15556558  0.42826626  0.51131311     1.04900
O175        O  0.10648560  0.40320500  0.53952041    -0.77600
C176        C  0.12761937  0.27512157  0.51837842     1.03200
Fe177      Fe  0.66750335  0.80311481  0.76814858     1.65800
Fe178      Fe  0.62641125  0.83592165  0.73127477     1.73200
Fe179      Fe  0.68013617  0.88273538  0.74681156     1.54400
O180        O  0.68912079  0.88286091  0.77944402    -0.81400
O181        O  0.64760444  0.84481567  0.70417030    -0.79700
O182        O  0.66910230  0.83628772  0.79336555    -0.83900
O183        O  0.70761537  0.80897276  0.76279744    -0.78700
O184        O  0.64778750  0.91468583  0.75326085    -0.80500
O185        O  0.63117828  0.78251282  0.72601608    -0.83300
C186        C  0.72268340  0.82679950  0.75073639     0.97500
C187        C  0.68203123  0.86434605  0.79534300     1.04900
O188        O  0.65809881  0.84066531  0.74873420    -1.12200
O189        O  0.60291172  0.82684244  0.75733951    -0.74700
O190        O  0.62855842  0.79185406  0.77654658    -0.78200
O191        O  0.71431969  0.85350170  0.74062085    -0.78900
C192        C  0.60608235  0.80502558  0.77230010     0.96400
O193        O  0.66687555  0.76678106  0.74425220    -0.76800
O194        O  0.61661412  0.88830514  0.73397747    -0.82000
C195        C  0.66179882  0.87099957  0.69965414     0.99000
C196        C  0.62495495  0.91430996  0.74462201     1.04900
O197        O  0.67363431  0.88901798  0.71385917    -0.77600
C198        C  0.64876083  0.76014508  0.73086546     1.03200
Fe199      Fe  0.61437857  0.81398722  0.47901226     1.65800
Fe200      Fe  0.65345559  0.84545239  0.51788733     1.73200
Fe201      Fe  0.60231175  0.89414020  0.50006210     1.54400
O202        O  0.59355697  0.89449872  0.46724243    -0.81400
O203        O  0.63005342  0.85396483  0.54386457    -0.79700
O204        O  0.61281254  0.84728148  0.45376742    -0.83900
O205        O  0.57399224  0.81973823  0.48468741    -0.78700
O206        O  0.63569665  0.92455426  0.49403564    -0.80500
O207        O  0.64838509  0.79197619  0.52268774    -0.83300
C208        C  0.55938482  0.83840289  0.49674374     0.97500
C209        C  0.60046877  0.87568899  0.45143006     1.04900
O210        O  0.62335570  0.85115382  0.49884737    -1.12200
O211        O  0.67855262  0.83648092  0.49301097    -0.74700
O212        O  0.65398392  0.80410406  0.47111438    -0.78200
O213        O  0.56792347  0.86566105  0.50618368    -0.78900
C214        C  0.67624920  0.81659208  0.47699370     0.96400
O215        O  0.61474611  0.77623805  0.50219290    -0.76800
O216        O  0.66392120  0.89786877  0.51582559    -0.82000
C217        C  0.61766356  0.88184955  0.54774214     0.99000
C218        C  0.65758714  0.92375224  0.50418044     1.04900
O219        O  0.60817554  0.90108447  0.53304492    -0.77600
C220        C  0.63168903  0.76936337  0.51647811     1.03200
Fe221      Fe  0.41170715  0.71539696  0.97446803     1.65800
Fe222      Fe  0.37654658  0.68903445  0.01816149     1.73200
Fe223      Fe  0.42884021  0.63969536  0.00060127     1.54400
O224        O  0.42521458  0.62725435  0.96799203    -0.81400
O225        O  0.40008963  0.67962071  0.04412977    -0.79700
O226        O  0.41573760  0.67747723  0.95178864    -0.83900
O227        O  0.45167938  0.71750548  0.97952777    -0.78700
O228        O  0.39743391  0.60535698  0.00596219    -0.80500
O229        O  0.38442780  0.74158332  0.02210412    -0.83300
C230        C  0.46916468  0.69814074  0.98778380     0.97500
C231        C  0.41989896  0.64498833  0.95131258     1.04900
O232        O  0.40578472  0.68134159  0.99779625    -1.12200
O233        O  0.34969804  0.69857367  0.99428021    -0.74700
O234        O  0.37228254  0.71761495  0.96607616    -0.78200
O235        O  0.46371975  0.66861122  0.99601724    -0.78900
C236        C  0.35073871  0.70951140  0.97520315     0.96400
O237        O  0.40835123  0.75814635  0.99414038    -0.76800
O238        O  0.36413156  0.63798436  0.01751767    -0.82000
C239        C  0.42098287  0.66249052  0.04818364     0.99000
C240        C  0.37383245  0.60854153  0.01284103     1.04900
O241        O  0.43397794  0.64673876  0.03359291    -0.77600
C242        C  0.39700140  0.76467256  0.01173389     1.03200
Fe243      Fe  0.36991942  0.71776808  0.77578084     1.65800
Fe244      Fe  0.40017226  0.68546121  0.73170626     1.73200
Fe245      Fe  0.34931830  0.63975264  0.75483258     1.54400
O246        O  0.35647960  0.63118784  0.78738760    -0.81400
O247        O  0.37678420  0.66517535  0.70812484    -0.79700
O248        O  0.36451630  0.68380253  0.80065824    -0.83900
O249        O  0.32996537  0.72257434  0.77066828    -0.78700
O250        O  0.38037683  0.60481326  0.74895794    -0.80500
O251        O  0.38813045  0.73485094  0.72287037    -0.83300
C252        C  0.31128505  0.70228969  0.76524545     0.97500
C253        C  0.36180976  0.65124094  0.80298651     1.04900
O254        O  0.37296349  0.68094534  0.75401096    -1.12200
O255        O  0.42818298  0.70590562  0.75186132    -0.74700
O256        O  0.40972213  0.71688189  0.78323556    -0.78200
O257        O  0.31537943  0.67040192  0.76038536    -0.78900
C258        C  0.42993184  0.71436271  0.77133011     0.96400
O259        O  0.37554200  0.75731750  0.75402032    -0.76800
O260        O  0.41497406  0.63698909  0.73857515    -0.82000
C261        C  0.35458223  0.65018371  0.70629431     0.99000
C262        C  0.40475971  0.60804226  0.74394383     1.04900
O263        O  0.34026429  0.64215638  0.72227953    -0.77600
C264        C  0.38138896  0.76055078  0.73440798     1.03200
Fe265      Fe  0.11759768  0.80573003  0.98599833     1.65800
Fe266      Fe  0.15814124  0.84338273  0.02172752     1.73200
Fe267      Fe  0.10517632  0.88873530  0.00256437     1.54400
O268        O  0.09853255  0.88490923  0.96940279    -0.81400
O269        O  0.13702846  0.85813775  0.04789896    -0.79700
O270        O  0.11676563  0.83491454  0.95895893    -0.83900
O271        O  0.07764357  0.81182604  0.99095585    -0.78700
O272        O  0.13795421  0.92012207  0.99590754    -0.80500
O273        O  0.15177514  0.79166928  0.03071572    -0.83300
C274        C  0.06308124  0.83101290  0.00252011     0.97500
C275        C  0.10635588  0.86410234  0.95477419     1.04900
O276        O  0.12695323  0.84612104  0.00342954    -1.12200
O277        O  0.18206508  0.82849168  0.99700920    -0.74700
O278        O  0.15636079  0.79279600  0.97853394    -0.78200
O279        O  0.07072908  0.86051587  0.00953778    -0.78900
C280        C  0.17897293  0.80536335  0.98280448     0.96400
O281        O  0.11756588  0.77306428  0.01170920    -0.76800
O282        O  0.16926111  0.89428075  0.01528604    -0.82000
C283        C  0.12125452  0.88330334  0.05073132     0.99000
C284        C  0.16118335  0.91955035  0.00386717     1.04900
O285        O  0.10949936  0.89886836  0.03543534    -0.77600
C286        C  0.13438968  0.76872512  0.02644366     1.03200
Fe287      Fe  0.16416796  0.81842868  0.27250262     1.65800
Fe288      Fe  0.12793728  0.84830482  0.23215658     1.73200
Fe289      Fe  0.17940150  0.89530809  0.25029342     1.54400
O290        O  0.18775018  0.89478600  0.28353274    -0.81400
O291        O  0.15300155  0.85355426  0.20705701    -0.79700
O292        O  0.16113100  0.85372957  0.29619105    -0.83900
O293        O  0.20501956  0.82507378  0.27017984    -0.78700
O294        O  0.14673874  0.92669435  0.25581298    -0.80500
O295        O  0.13273824  0.79395142  0.22940422    -0.83300
C296        C  0.22025435  0.83940082  0.25651769     0.97500
C297        C  0.17693367  0.87870336  0.29916438     1.04900
O298        O  0.15711513  0.85402426  0.25165501    -1.12200
O299        O  0.10161601  0.84253393  0.25651833    -0.74700
O300        O  0.12426538  0.80698705  0.27766219    -0.78200
O301        O  0.21252447  0.86447234  0.24469037    -0.78900
C302        C  0.10266433  0.82136170  0.27195813     0.96400
O303        O  0.16742224  0.78107469  0.24968815    -0.76800
O304        O  0.11885829  0.90189400  0.23268877    -0.82000
C305        C  0.16466036  0.88168274  0.20255235     0.99000
C306        C  0.12524718  0.92697888  0.24512088     1.04900
O307        O  0.17371198  0.90192564  0.21700632    -0.77600
C308        C  0.15031560  0.77254794  0.23591425     1.03200
Fe309      Fe  0.86583404  0.72311001  0.27609362     1.65800
Fe310      Fe  0.89754301  0.69492179  0.23134032     1.73200
Fe311      Fe  0.84898483  0.64449299  0.25370728     1.54400
O312        O  0.85633377  0.63539092  0.28619994    -0.81400
O313        O  0.87469556  0.67533426  0.20719386    -0.79700
O314        O  0.86212343  0.68784903  0.30058208    -0.83900
O315        O  0.82588478  0.72483937  0.27106219    -0.78700
O316        O  0.88159035  0.61206273  0.24759854    -0.80500
O317        O  0.88390067  0.74400118  0.22376720    -0.83300
C318        C  0.80830716  0.70370957  0.26467493     0.97500
C319        C  0.86077617  0.65505063  0.30217006     1.04900
O320        O  0.87067869  0.68744768  0.25365110    -1.12200
O321        O  0.92474609  0.71540404  0.25212050    -0.74700
O322        O  0.90553744  0.72553934  0.28339510    -0.78200
O323        O  0.81372807  0.67245304  0.25918761    -0.78900
C324        C  0.92584267  0.72449362  0.27153865     0.96400
O325        O  0.86926403  0.76395782  0.25499030    -0.76800
O326        O  0.91409543  0.64686484  0.23661148    -0.82000
C327        C  0.85335569  0.65839119  0.20522075     0.99000
C328        C  0.90556753  0.61695506  0.24179660     1.04900
O329        O  0.84005377  0.64743567  0.22112709    -0.77600
C330        C  0.87525095  0.76837970  0.23551616     1.03200
Fe331      Fe  0.91264262  0.72189120  0.47862718     1.65800
Fe332      Fe  0.88180888  0.69064275  0.52311175     1.73200
Fe333      Fe  0.93230059  0.64361546  0.50037772     1.54400
O334        O  0.92600736  0.63506341  0.46750032    -0.81400
O335        O  0.90793012  0.67905995  0.54700339    -0.79700
O336        O  0.91375744  0.68650489  0.45418305    -0.83900
O337        O  0.95314276  0.72318017  0.48094042    -0.78700
O338        O  0.90129285  0.60857157  0.50581381    -0.80500
O339        O  0.88980943  0.74272378  0.52842779    -0.83300
C340        C  0.97142145  0.70364316  0.48789404     0.97500
C341        C  0.91857294  0.65433862  0.45200912     1.04900
O342        O  0.90897403  0.68531792  0.50072067    -1.12200
O343        O  0.85246678  0.70285381  0.50170640    -0.74700
O344        O  0.87239509  0.72593943  0.47346857    -0.78200
O345        O  0.96670646  0.67330150  0.49526498    -0.78900
C346        C  0.85159353  0.71746408  0.48355975     0.96400
O347        O  0.91172516  0.76233678  0.50017988    -0.76800
O348        O  0.86950962  0.63962258  0.52116795    -0.82000
C349        C  0.92908310  0.66160866  0.54912029     0.99000
C350        C  0.87843752  0.61089580  0.51430659     1.04900
O351        O  0.94042795  0.64684872  0.53328805    -0.77600
C352        C  0.90121897  0.76710391  0.51833317     1.03200
Fe353      Fe  0.87297571  0.06470422  0.47980459     1.65800
Fe354      Fe  0.90389955  0.09437688  0.52473472     1.73200
Fe355      Fe  0.85415737  0.14285532  0.50213474     1.54400
O356        O  0.85994690  0.15162148  0.46915268    -0.81400
O357        O  0.87855819  0.10789301  0.54896570    -0.79700
O358        O  0.87042216  0.09992877  0.45541140    -0.83900
O359        O  0.83260709  0.06290347  0.48321615    -0.78700
O360        O  0.88603139  0.17685045  0.50715385    -0.80500
O361        O  0.89403414  0.04313965  0.53068723    -0.83300
C362        C  0.81456722  0.08295685  0.49009668     0.97500
C363        C  0.86606302  0.13217177  0.45337711     1.04900
O364        O  0.87690721  0.10068950  0.50225912    -1.12200
O365        O  0.93274787  0.08026374  0.50320621    -0.74700
O366        O  0.91309202  0.06247462  0.47349640    -0.78200
O367        O  0.81949514  0.11346527  0.49720390    -0.78900
C368        C  0.93381098  0.06926153  0.48415457     0.96400
O369        O  0.87499734  0.02390543  0.50100765    -0.76800
O370        O  0.91760541  0.14455622  0.52189987    -0.82000
C371        C  0.85749954  0.12552843  0.55112015     0.99000
C372        C  0.90925105  0.17349750  0.51484548     1.04900
O373        O  0.84613662  0.13998902  0.53519707    -0.77600
C374        C  0.88330249  0.01912566  0.51984966     1.03200
Fe375      Fe  0.91006874  0.06766674  0.27627410     1.65800
Fe376      Fe  0.87583060  0.09808012  0.23331930     1.73200
Fe377      Fe  0.92816089  0.14515363  0.25316263     1.54400
O378        O  0.92258010  0.15531039  0.28590911    -0.81400
O379        O  0.90019693  0.10970153  0.20799989    -0.79700
O380        O  0.91707051  0.10274044  0.30029021    -0.83900
O381        O  0.94933265  0.06324907  0.26919269    -0.78700
O382        O  0.89716663  0.18061734  0.24765821    -0.80500
O383        O  0.88307870  0.04625794  0.22726089    -0.83300
C384        C  0.96755643  0.08374692  0.26329893     0.97500
C385        C  0.91914669  0.13544723  0.30200432     1.04900
O386        O  0.90470178  0.10369171  0.25418987    -1.12200
O387        O  0.84862155  0.08585775  0.25672118    -0.74700
O388        O  0.87103067  0.06806141  0.28543390    -0.78200
O389        O  0.96288382  0.11537040  0.25813206    -0.78900
C390        C  0.84955503  0.07490212  0.27585001     0.96400
O391        O  0.90355437  0.02652537  0.25604864    -0.76800
O392        O  0.86371455  0.14858516  0.23594283    -0.82000
C393        C  0.92226265  0.12487274  0.20508310     0.99000
C394        C  0.87336285  0.17775936  0.24115653     1.04900
O395        O  0.93504468  0.13936380  0.22028251    -0.77600
C396        C  0.89304454  0.02164349  0.23796870     1.03200
Fe397      Fe  0.11130913  0.97018594  0.76430747     1.65800
Fe398      Fe  0.14788613  0.93259092  0.72617537     1.73200
Fe399      Fe  0.09735970  0.88778285  0.74838427     1.54400
O400        O  0.09213351  0.89257937  0.78167351    -0.81400
O401        O  0.12321759  0.92093509  0.70162616    -0.79700
O402        O  0.11368267  0.94062909  0.79119667    -0.83900
O403        O  0.07064607  0.96307826  0.76246258    -0.78700
O404        O  0.13076448  0.85742267  0.75425592    -0.80500
O405        O  0.14243988  0.98539027  0.71912949    -0.83300
C406        C  0.05499436  0.94393047  0.75170234     0.97500
C407        C  0.10182358  0.91260960  0.79596885     1.04900
O408        O  0.11879064  0.93013009  0.74632692    -1.12200
O409        O  0.17411968  0.94438679  0.74972480    -0.74700
O410        O  0.15115464  0.98308193  0.76853923    -0.78200
O411        O  0.06269046  0.91596790  0.74261073    -0.78900
C412        C  0.17295963  0.96884081  0.76324887     0.96400
O413        O  0.10833272  0.00297811  0.73864864    -0.76800
O414        O  0.15828879  0.88046240  0.73035092    -0.82000
C415        C  0.10937788  0.89370048  0.69953952     0.99000
C416        C  0.15218583  0.85642977  0.74348678     1.04900
O417        O  0.10030805  0.87662338  0.71543712    -0.77600
C418        C  0.12515459  0.00820484  0.72399826     1.03200
Fe419      Fe  0.16861890  0.97967564  0.48152097     1.65800
Fe420      Fe  0.12550365  0.94778245  0.51711333     1.73200
Fe421      Fe  0.17943698  0.89988723  0.50354833     1.54400
O422        O  0.19043603  0.89925399  0.47111906    -0.81400
O423        O  0.14513836  0.93905517  0.54505101    -0.79700
O424        O  0.17161006  0.94610607  0.45662224    -0.83900
O425        O  0.20801390  0.97367711  0.48860325    -0.78700
O426        O  0.14695929  0.86786521  0.49649593    -0.80500
O427        O  0.13038158  0.00075706  0.52217783    -0.83300
C428        C  0.22243675  0.95572447  0.50098540     0.97500
C429        C  0.18446124  0.91791941  0.45496484     1.04900
O430        O  0.15793148  0.94234250  0.50070718    -1.12200
O431        O  0.10349498  0.95697858  0.49025099    -0.74700
O432        O  0.13041865  0.99131311  0.47168927    -0.78200
O433        O  0.21360502  0.92894368  0.51082458    -0.78900
C434        C  0.10756772  0.97896296  0.47549890     0.96400
O435        O  0.16678211  0.01661735  0.50498033    -0.76800
O436        O  0.11545978  0.89580128  0.51443076    -0.82000
C437        C  0.15819053  0.91210626  0.55000132     0.99000
C438        C  0.12377873  0.86896457  0.50467197     1.04900
O439        O  0.17081230  0.89408591  0.53622340    -0.77600
C440        C  0.14809953  0.02316103  0.51782645     1.03200
Fe441      Fe  0.66667269  0.97587383  0.97938818     1.65800
Fe442      Fe  0.62457512  0.94217177  0.01490197     1.73200
Fe443      Fe  0.67744384  0.89443917  0.99863889     1.54400
O444        O  0.68531357  0.89587961  0.96554957    -0.81400
O445        O  0.64525969  0.93150877  0.04196220    -0.79700
O446        O  0.66639493  0.94466736  0.95343929    -0.83900
O447        O  0.70648163  0.96791817  0.98379375    -0.78700
O448        O  0.64449038  0.86312711  0.99244135    -0.80500
O449        O  0.63044202  0.99518343  0.02100598    -0.83300
C450        C  0.72109636  0.94912860  0.99550411     0.97500
C451        C  0.67728167  0.91545909  0.95035977     1.04900
O452        O  0.65632382  0.93724600  0.99766440    -1.12200
O453        O  0.60189185  0.95280324  0.98861069    -0.74700
O454        O  0.62829135  0.99006819  0.97184851    -0.78200
O455        O  0.71227353  0.92220156  0.00508791    -0.78900
C456        C  0.60570947  0.97636362  0.97479539     0.96400
O457        O  0.66763645  0.00968399  0.00446840    -0.76800
O458        O  0.61378211  0.89031299  0.01159417    -0.82000
C459        C  0.65963081  0.90533823  0.04609007     0.99000
C460        C  0.62165457  0.86387417  0.00112453     1.04900
O461        O  0.67136804  0.88754621  0.03167022    -0.77600
C462        C  0.64926503  0.01656281  0.01753034     1.03200
Fe463      Fe  0.61688737  0.97841953  0.26330128     1.65800
Fe464      Fe  0.65413817  0.94014229  0.22601731     1.73200
Fe465      Fe  0.60099845  0.89764526  0.24594919     1.54400
O466        O  0.59503250  0.90158269  0.27925453    -0.81400
O467        O  0.63028989  0.93132102  0.20054034    -0.79700
O468        O  0.61784801  0.94819437  0.28997005    -0.83900
O469        O  0.57617252  0.97339830  0.26105128    -0.78700
O470        O  0.63285506  0.86463639  0.25163844    -0.80500
O471        O  0.65056629  0.99304061  0.21962318    -0.83300
C472        C  0.56034616  0.95580269  0.24953583     0.97500
C473        C  0.60476627  0.92079911  0.29398811     1.04900
O474        O  0.62399368  0.93850943  0.24518774    -1.12200
O475        O  0.67965646  0.94936440  0.25067691    -0.74700
O476        O  0.65674496  0.98949711  0.26827632    -0.78200
O477        O  0.56759195  0.92797216  0.24012971    -0.78900
C478        C  0.67833586  0.97376245  0.26425512     0.96400
O479        O  0.61525976  0.01109206  0.23755593    -0.76800
O480        O  0.66238039  0.88748857  0.22929291    -0.82000
C481        C  0.61521779  0.90549847  0.19753561     0.99000
C482        C  0.65453365  0.86281399  0.24126749     1.04900
O483        O  0.60464942  0.88836665  0.21282446    -0.77600
C484        C  0.63274271  0.01561576  0.22332997     1.03200
Fe485      Fe  0.37248010  0.06889967  0.97620515     1.65800
Fe486      Fe  0.40201847  0.09725858  0.02193681     1.73200
Fe487      Fe  0.35177029  0.14509984  0.99949714     1.54400
O488        O  0.35640730  0.15474858  0.96652871    -0.81400
O489        O  0.37517266  0.10632349  0.04578571    -0.79700
O490        O  0.37230849  0.10566193  0.95257141    -0.83900
O491        O  0.33179387  0.06744198  0.97788788    -0.78700
O492        O  0.38334689  0.17935537  0.00377633    -0.80500
O493        O  0.39467271  0.04435708  0.02575883    -0.83300
C494        C  0.31344292  0.08545721  0.98622604     0.97500
C495        C  0.36566299  0.13726900  0.95090316     1.04900
O496        O  0.37533012  0.10372948  0.99925619    -1.12200
O497        O  0.43190995  0.08762162  0.00061411    -0.74700
O498        O  0.41282487  0.06579536  0.97167653    -0.78200
O499        O  0.31776606  0.11470692  0.99519961    -0.78900
C500        C  0.43327604  0.07463808  0.98205414     0.96400
O501        O  0.37291884  0.02729757  0.99679903    -0.76800
O502        O  0.41388573  0.14872631  0.02103920    -0.82000
C503        C  0.35455979  0.12478745  0.04806703     0.99000
C504        C  0.40603048  0.17685822  0.01247250     1.04900
O505        O  0.34441850  0.14165093  0.03253207    -0.77600
C506        C  0.38326798  0.02092554  0.01480360     1.03200
Fe507      Fe  0.41030781  0.05733302  0.77353155     1.65800
Fe508      Fe  0.37931342  0.08986431  0.72945418     1.73200
Fe509      Fe  0.43086650  0.13523243  0.75187256     1.54400
O510        O  0.42610197  0.14275609  0.78506419    -0.81400
O511        O  0.40507390  0.10113675  0.70534048    -0.79700
O512        O  0.41185476  0.09213828  0.79824918    -0.83900
O513        O  0.45079972  0.05536975  0.77095164    -0.78700
O514        O  0.40010156  0.17092669  0.74805710    -0.80500
O515        O  0.38652823  0.03744791  0.72367602    -0.83300
C516        C  0.46915880  0.07401487  0.76318760     0.97500
C517        C  0.41802426  0.12386739  0.80054962     1.04900
O518        O  0.40688139  0.09420968  0.75160030    -1.12200
O519        O  0.35019151  0.07847563  0.75114380    -0.74700
O520        O  0.37004333  0.05403578  0.77904041    -0.78200
O521        O  0.46475980  0.10423932  0.75553888    -0.78900
C522        C  0.34939258  0.06406399  0.76930918     0.96400
O523        O  0.40910476  0.01766287  0.75158179    -0.76800
O524        O  0.36799107  0.14132729  0.73189806    -0.82000
C525        C  0.42597458  0.11895657  0.70284079     0.99000
C526        C  0.37726388  0.16939444  0.73953764     1.04900
O527        O  0.43768708  0.13353448  0.71857106    -0.77600
C528        C  0.39865706  0.01323720  0.73341799     1.03200
Fe529      Fe  0.16820685  0.47566313  0.98659314     1.65800
Fe530      Fe  0.12565876  0.44411859  0.02282270     1.73200
Fe531      Fe  0.17755521  0.39435118  0.00618204     1.54400
O532        O  0.18456015  0.39481304  0.97300294    -0.81400
O533        O  0.14612315  0.43165565  0.04978868    -0.79700
O534        O  0.16655329  0.44388202  0.96074402    -0.83900
O535        O  0.20800324  0.46582504  0.99036788    -0.78700
O536        O  0.14404143  0.36453591  0.00040268    -0.80500
O537        O  0.13361352  0.49687871  0.02910144    -0.83300
C538        C  0.22237035  0.44691714  0.00225228     0.97500
C539        C  0.17679658  0.41418704  0.95763076     1.04900
O540        O  0.15717547  0.43784682  0.00528225    -1.12200
O541        O  0.10270885  0.45710248  0.99705057    -0.74700
O542        O  0.13011264  0.49209463  0.97962335    -0.78200
O543        O  0.21305673  0.42061210  0.01210672    -0.78900
C544        C  0.10696485  0.48087878  0.98343773     0.96400
O545        O  0.17045718  0.50991150  0.01150777    -0.76800
O546        O  0.11298870  0.39264420  0.01883883    -0.82000
C547        C  0.16106789  0.40598609  0.05377699     0.99000
C548        C  0.12083286  0.36618218  0.00827471     1.04900
O549        O  0.17239662  0.38801308  0.03927278    -0.77600
C550        C  0.15249052  0.51787083  0.02475005     1.03200
Fe551      Fe  0.11009832  0.47857249  0.27300907     1.65800
Fe552      Fe  0.15336789  0.44382567  0.23867434     1.73200
Fe553      Fe  0.09987357  0.39667049  0.25367684     1.54400
O554        O  0.08991279  0.39844459  0.28629505    -0.81400
O555        O  0.13355741  0.43384903  0.21110203    -0.79700
O556        O  0.10771942  0.44751250  0.29913153    -0.83900
O557        O  0.07036851  0.47131583  0.26701804    -0.78700
O558        O  0.13244470  0.36516861  0.26118532    -0.80500
O559        O  0.14885397  0.49683050  0.23257943    -0.83300
C560        C  0.05639344  0.45210950  0.25499125     0.97500
C561        C  0.09555056  0.41896719  0.30168285     1.04900
O562        O  0.12097194  0.43950979  0.25517340    -1.12200
O563        O  0.17495517  0.45383256  0.26548894    -0.74700
O564        O  0.14855492  0.49156054  0.28192752    -0.78200
O565        O  0.06555774  0.42477366  0.24603516    -0.78900
C566        C  0.17110708  0.47747999  0.27922536     0.96400
O567        O  0.11124315  0.51291090  0.24791552    -0.76800
O568        O  0.16343828  0.39185147  0.24207813    -0.82000
C569        C  0.11968205  0.40734804  0.20669452     0.99000
C570        C  0.15543587  0.36569813  0.25273472     1.04900
O571        O  0.10764998  0.38938678  0.22088628    -0.77600
C572        C  0.13051641  0.51900661  0.23551236     1.03200
Fe573      Fe  0.87368059  0.56981530  0.97835250     1.65800
Fe574      Fe  0.90055246  0.59875293  0.02486170     1.73200
Fe575      Fe  0.85219007  0.64645211  0.00031529     1.54400
O576        O  0.85673602  0.65444501  0.96727137    -0.81400
O577        O  0.87151545  0.60486814  0.04748588    -0.79700
O578        O  0.87497466  0.60602626  0.95450840    -0.83900
O579        O  0.83277566  0.56870624  0.97901686    -0.78700
O580        O  0.88382365  0.68035631  0.00402352    -0.80500
O581        O  0.89563209  0.54487676  0.02740954    -0.83300
C582        C  0.81420945  0.58636326  0.98745392     0.97500
C583        C  0.86753568  0.63717181  0.95226032     1.04900
O584        O  0.87535938  0.60493170  0.00120670    -1.12200
O585        O  0.93157616  0.59260039  0.00409036    -0.74700
O586        O  0.91447451  0.56735673  0.97527831    -0.78200
O587        O  0.81834538  0.61559468  0.99656922    -0.78900
C588        C  0.93413665  0.57899683  0.98576771     0.96400
O589        O  0.87276921  0.52825383  0.99896408    -0.76800
O590        O  0.91033447  0.65135039  0.02612742    -0.82000
C591        C  0.85330159  0.62745389  0.04915293     0.99000
C592        C  0.90406506  0.67886310  0.01602381     1.04900
O593        O  0.84542778  0.64587590  0.03342901    -0.77600
C594        C  0.88394695  0.52152871  0.01655487     1.03200
Fe595      Fe  0.90931560  0.56168751  0.77772325     1.65800
Fe596      Fe  0.88118532  0.58843439  0.73100981     1.73200
Fe597      Fe  0.93153667  0.63648536  0.75298334     1.54400
O598        O  0.92615138  0.64817924  0.78549460    -0.81400
O599        O  0.90736572  0.59866757  0.70693121    -0.79700
O600        O  0.91191528  0.59922064  0.80073727    -0.83900
O601        O  0.94998151  0.55774379  0.77509985    -0.78700
O602        O  0.90074514  0.67147275  0.74696438    -0.80500
O603        O  0.88952106  0.53595347  0.72719959    -0.83300
C604        C  0.96880757  0.57561473  0.76723830     0.97500
C605        C  0.91817449  0.63104190  0.80168480     1.04900
O606        O  0.90743012  0.59554696  0.75388375    -1.12200
O607        O  0.85146372  0.57750903  0.75201651    -0.74700
O608        O  0.86856218  0.56129403  0.78304507    -0.78200
O609        O  0.96497967  0.60543039  0.75873559    -0.78900
C610        C  0.84874930  0.56746852  0.77113836     0.96400
O611        O  0.90687516  0.51897410  0.75812502    -0.76800
O612        O  0.86896509  0.63962353  0.73203695    -0.82000
C613        C  0.92844440  0.61605575  0.70457954     0.99000
C614        C  0.87781411  0.66861592  0.73865176     1.04900
O615        O  0.93963833  0.63149253  0.72018721    -0.77600
C616        C  0.89890584  0.51260978  0.73937456     1.03200
Fe617      Fe  0.60978202  0.47206316  0.76481151     1.65800
Fe618      Fe  0.65237067  0.43587536  0.73021037     1.73200
Fe619      Fe  0.59888993  0.38940444  0.74703222     1.54400
O620        O  0.59060039  0.39243323  0.77988560    -0.81400
O621        O  0.63217888  0.42287601  0.70326283    -0.79700
O622        O  0.60852274  0.44219308  0.79154375    -0.83900
O623        O  0.56986687  0.46421965  0.75999633    -0.78700
O624        O  0.63149205  0.35808840  0.75402728    -0.80500
O625        O  0.64628218  0.48817500  0.72224575    -0.83300
C626        C  0.55539270  0.44423461  0.74888931     0.97500
C627        C  0.59701026  0.41335204  0.79487776     1.04900
O628        O  0.62030596  0.43222204  0.74739510    -1.12200
O629        O  0.67505987  0.44918689  0.75610417    -0.74700
O630        O  0.64836060  0.48636684  0.77267705    -0.78200
O631        O  0.56425585  0.41685618  0.73991277    -0.78900
C632        C  0.67114545  0.47320182  0.76960646     0.96400
O633        O  0.60974072  0.50490054  0.73906338    -0.76800
O634        O  0.66334236  0.38433336  0.73547401    -0.82000
C635        C  0.61699471  0.39733533  0.69959199     0.99000
C636        C  0.65478903  0.35845914  0.74618647     1.04900
O637        O  0.60482453  0.38073820  0.71426695    -0.77600
C638        C  0.62780692  0.51017629  0.72540805     1.03200
Fe639      Fe  0.66864730  0.47872368  0.48686109     1.65800
Fe640      Fe  0.62980754  0.44019466  0.52289266     1.73200
Fe641      Fe  0.68193076  0.39604320  0.50246362     1.54400
O642        O  0.68742613  0.40089665  0.46917752    -0.81400
O643        O  0.65307262  0.42902409  0.54841467    -0.79700
O644        O  0.66680691  0.44999257  0.45973230    -0.83900
O645        O  0.70913314  0.47148211  0.48911230    -0.78700
O646        O  0.64924623  0.36483974  0.49623865    -0.80500
O647        O  0.63418399  0.49354630  0.52978791    -0.83300
C648        C  0.72452880  0.45208092  0.49987523     0.97500
C649        C  0.67772231  0.42131849  0.45506349     1.04900
O650        O  0.66027055  0.43813164  0.50408321    -1.12200
O651        O  0.60533588  0.45117932  0.49790426    -0.74700
O652        O  0.62920977  0.49202505  0.48190375    -0.78200
O653        O  0.71651744  0.42402710  0.50862896    -0.78900
C654        C  0.60726235  0.47668295  0.48514633     0.96400
O655        O  0.67080770  0.51021092  0.51315053    -0.76800
O656        O  0.62016253  0.38756882  0.51896971    -0.82000
C657        C  0.66743166  0.40229580  0.55097138     0.99000
C658        C  0.62763767  0.36307414  0.50664581     1.04900
O659        O  0.67789387  0.38565127  0.53542612    -0.77600
C660        C  0.65225065  0.51607810  0.52626740     1.03200
Fe661      Fe  0.37321601  0.56492903  0.48089055     1.65800
Fe662      Fe  0.40479550  0.59837390  0.52449820     1.73200
Fe663      Fe  0.35321993  0.64333557  0.50175245     1.54400
O664        O  0.35883310  0.65116191  0.46899474    -0.81400
O665        O  0.37859800  0.60959962  0.54874806    -0.79700
O666        O  0.36729349  0.59847034  0.45589923    -0.83900
O667        O  0.33350731  0.56006800  0.48629468    -0.78700
O668        O  0.38361622  0.67950518  0.50627935    -0.80500
O669        O  0.39852510  0.54617689  0.53099842    -0.83300
C670        C  0.31522098  0.58045348  0.49225247     0.97500
C671        C  0.36375574  0.63082052  0.45346313     1.04900
O672        O  0.37702343  0.60222370  0.50245306    -1.12200
O673        O  0.43354297  0.58663732  0.50211654    -0.74700
O674        O  0.41270703  0.56606267  0.47334252    -0.78200
O675        O  0.31951993  0.61213892  0.49736417    -0.78900
C676        C  0.43364157  0.57467968  0.48317824     0.96400
O677        O  0.37887577  0.52497315  0.50221990    -0.76800
O678        O  0.41594311  0.64972250  0.52168783    -0.82000
C679        C  0.35711073  0.62657638  0.55036841     0.99000
C680        C  0.40666909  0.67798677  0.51437433     1.04900
O681        O  0.34568797  0.64095347  0.53452208    -0.77600
C682        C  0.38894326  0.52094090  0.52055175     1.03200
Fe683      Fe  0.40699101  0.56376216  0.27586803     1.65800
Fe684      Fe  0.37626708  0.59388326  0.23104419     1.73200
Fe685      Fe  0.42652963  0.64134997  0.25348035     1.54400
O686        O  0.42298047  0.64895617  0.28660310    -0.81400
O687        O  0.40249849  0.60416108  0.20694787    -0.79700
O688        O  0.40771975  0.59915716  0.30011161    -0.83900
O689        O  0.44761757  0.56290981  0.27347199    -0.78700
O690        O  0.39471814  0.67550892  0.25049681    -0.80500
O691        O  0.38382318  0.54131765  0.22628305    -0.83300
C692        C  0.46542715  0.58128003  0.26465718     0.97500
C693        C  0.41434372  0.63069581  0.30210318     1.04900
O694        O  0.40332462  0.59966937  0.25344194    -1.12200
O695        O  0.34700708  0.58305834  0.25271613    -0.74700
O696        O  0.36670393  0.55997522  0.28102331    -0.78200
O697        O  0.46067069  0.61081485  0.25619353    -0.78900
C698        C  0.34601490  0.56921079  0.27106859     0.96400
O699        O  0.40636400  0.52331267  0.25461288    -0.76800
O700        O  0.36435565  0.64532666  0.23274803    -0.82000
C701        C  0.42251082  0.62373733  0.20475680     0.99000
C702        C  0.37217838  0.67333021  0.24153049     1.04900
O703        O  0.43263400  0.64041758  0.22034177    -0.77600
C704        C  0.39592301  0.51772339  0.23659267     1.03200
C705        C  0.36136116  0.63269692  0.39336980    -0.01700
C706        C  0.38265015  0.65521654  0.38842083     0.06900
C707        C  0.39480084  0.67393447  0.40502937    -0.07700
C708        C  0.38709578  0.66890146  0.42640697     0.04300
C709        C  0.36709131  0.64446049  0.43144639    -0.14900
C710        C  0.35398040  0.62727737  0.41470508    -0.08200
C711        C  0.39414251  0.65613296  0.36642912     0.05300
C712        C  0.37924524  0.67005302  0.34952401    -0.09400
C713        C  0.38715800  0.66518147  0.32820998     0.00300
C714        C  0.41034925  0.64607503  0.32352944     0.00100
C715        C  0.42605241  0.63399548  0.34046329    -0.12900
C716        C  0.41829936  0.63913354  0.36176511     0.00600
C717        C  0.36994083  0.67725076  0.31136627     0.39900
C718        C  0.43441794  0.62436809  0.37851595     0.36500
C719        C  0.34795939  0.61305151  0.37693176     0.36200
C720        C  0.40160062  0.68673907  0.44298490     0.37000
N721        N  0.35608823  0.68681817  0.29787599    -0.43800
N722        N  0.44733316  0.61262649  0.39196994    -0.44200
N723        N  0.41324847  0.70097784  0.45628509    -0.41600
N724        N  0.33718713  0.59743650  0.36372755    -0.43000
H725        H  0.33877067  0.60821476  0.41840193     0.13100
H726        H  0.41115345  0.69127272  0.40136591     0.09600
H727        H  0.36064560  0.68304391  0.35294979     0.10700
H728        H  0.44357670  0.61863106  0.33700897     0.16500
C729        C  0.53437523  0.48903482  0.47557418    -0.01700
C730        C  0.53373282  0.52009904  0.46354616     0.06900
C731        C  0.55750406  0.53484551  0.45634719    -0.07700
C732        C  0.58192593  0.52019902  0.46195956     0.04300
C733        C  0.58264720  0.49002746  0.47506341    -0.14900
C734        C  0.55859461  0.47399961  0.48076505    -0.08200
C735        C  0.50892761  0.54026409  0.46185379     0.05300
C736        C  0.50728319  0.57163181  0.47321931    -0.09400
C737        C  0.48265860  0.58575254  0.47848421     0.00300
C738        C  0.45932512  0.56781354  0.47269144     0.00100
C739        C  0.46115670  0.53941535  0.45856801    -0.12900
C740        C  0.48582996  0.52574768  0.45294904     0.00600
C741        C  0.48200059  0.61812912  0.49015648     0.39900
C742        C  0.48696467  0.49522326  0.43949755     0.36500
C743        C  0.51068481  0.47386143  0.48469233     0.36200
C744        C  0.60560816  0.53781098  0.45478411     0.37000
N745        N  0.48176617  0.64432945  0.49926794    -0.43800
N746        N  0.48793562  0.47068444  0.42879246    -0.44200
N747        N  0.62450591  0.55209900  0.44901206    -0.41600
N748        N  0.49176462  0.46174665  0.49206331    -0.43000
H749        H  0.55851705  0.45075079  0.49060911     0.13100
H750        H  0.55696652  0.55887321  0.44722949     0.09600
H751        H  0.52516361  0.58363941  0.47941411     0.10700
H752        H  0.44338468  0.52611958  0.45324234     0.16500
C753        C  0.61795796  0.40696961  0.64067681    -0.01700
C754        C  0.63400265  0.37824890  0.63491762     0.06900
C755        C  0.63817011  0.35153740  0.64985327    -0.07700
C756        C  0.62905060  0.35500134  0.67092169     0.04300
C757        C  0.61586528  0.38575559  0.67722768    -0.14900
C758        C  0.60926345  0.41062111  0.66174700    -0.08200
C759        C  0.64890690  0.37830700  0.61439555     0.05300
C760        C  0.66582419  0.40656523  0.61015950    -0.09400
C761        C  0.67572263  0.41231385  0.58962667     0.00300
C762        C  0.66911642  0.38919936  0.57300759     0.00100
C763        C  0.65542966  0.35830941  0.57790831    -0.12900
C764        C  0.64516200  0.35275039  0.59848913     0.00600
C765        C  0.69073835  0.44365639  0.58548950     0.39900
C766        C  0.62900461  0.32234576  0.60234464     0.36500
C767        C  0.61156377  0.43416704  0.62557275     0.36200
C768        C  0.63609544  0.32861079  0.68633828     0.37000
N769        N  0.70276320  0.46874895  0.58211290    -0.43800
N770        N  0.61614166  0.29789145  0.60546859    -0.44200
N771        N  0.64170894  0.30751838  0.69873860    -0.41600
N772        N  0.60653332  0.45600960  0.61349761    -0.43000
H773        H  0.59915668  0.43432379  0.66652545     0.13100
H774        H  0.65020385  0.32924000  0.64551978     0.09600
H775        H  0.66973230  0.42556150  0.62258500     0.10700
H776        H  0.65026486  0.34041915  0.56517194     0.16500
C777        C  0.77475310  0.55542033  0.76781014    -0.01700
C778        C  0.76852514  0.53941611  0.78741577     0.06900
C779        C  0.78831852  0.53606453  0.80301441    -0.07700
C780        C  0.81443997  0.54707786  0.79892207     0.04300
C781        C  0.82104936  0.56125029  0.77868585    -0.14900
C782        C  0.80050066  0.56663216  0.76382551    -0.08200
C783        C  0.74240846  0.52229855  0.79025958     0.05300
C784        C  0.74138309  0.48583226  0.78926615    -0.09400
C785        C  0.71757525  0.46870399  0.78463773     0.00300
C786        C  0.69439165  0.48835094  0.78068669     0.00100
C787        C  0.69483769  0.52446390  0.78447134    -0.12900
C788        C  0.71862573  0.54149472  0.78930832     0.00600
C789        C  0.71766405  0.43111312  0.78341772     0.39900
C790        C  0.71861504  0.57893912  0.79160613     0.36500
C791        C  0.75565458  0.55795213  0.75067321     0.36200
C792        C  0.83386145  0.54279440  0.81561142     0.37000
N793        N  0.71772347  0.40098306  0.78259703    -0.43800
N794        N  0.71868651  0.60894889  0.79342368    -0.44200
N795        N  0.84929316  0.53946681  0.82911417    -0.41600
N796        N  0.74045454  0.55985519  0.73690009    -0.43000
H797        H  0.80467235  0.57792653  0.74831369     0.13100
H798        H  0.78351690  0.52382781  0.81813783     0.09600
H799        H  0.75956346  0.47089394  0.79047786     0.10700
H800        H  0.67707973  0.53984321  0.78199684     0.16500
C801        C  0.86327194  0.65285939  0.89302282    -0.01700
C802        C  0.88948323  0.66374794  0.88823209     0.06900
C803        C  0.90635078  0.67227416  0.90532798    -0.07700
C804        C  0.89864036  0.66642639  0.92658702     0.04300
C805        C  0.87312001  0.65333241  0.93123066    -0.14900
C806        C  0.85538646  0.64779879  0.91435172    -0.08200
C807        C  0.90056032  0.66166329  0.86593086     0.05300
C808        C  0.88731858  0.67794413  0.84883220    -0.09400
C809        C  0.89406570  0.67051860  0.82749208     0.00300
C810        C  0.91528725  0.64776165  0.82290577     0.00100
C811        C  0.92988718  0.63383832  0.83991656    -0.12900
C812        C  0.92267111  0.64022348  0.86118675     0.00600
C813        C  0.87698124  0.68314617  0.81073094     0.39900
C814        C  0.93682395  0.62160687  0.87765793     0.36500
C815        C  0.84468313  0.64393691  0.87639093     0.36200
C816        C  0.91813877  0.67084501  0.94323850     0.37000
N817        N  0.86294812  0.69279860  0.79739065    -0.43800
N818        N  0.94817746  0.60661626  0.89081418    -0.44200
N819        N  0.93390774  0.67396548  0.95650174    -0.41600
N820        N  0.82974541  0.63700391  0.86304216    -0.43000
H821        H  0.83594254  0.63706963  0.91774481     0.13100
H822        H  0.92632896  0.68119509  0.90200586     0.09600
H823        H  0.87049565  0.69466530  0.85212532     0.10700
H824        H  0.94581541  0.61566352  0.83653769     0.16500
C825        C  0.27160641  0.56184479  0.27472142    -0.01700
C826        C  0.26799248  0.54335530  0.29396624     0.06900
C827        C  0.28994165  0.53628821  0.30692270    -0.07700
C828        C  0.31554198  0.54578318  0.30049344     0.04300
C829        C  0.31941272  0.56272434  0.28057748    -0.14900
C830        C  0.29699561  0.57172061  0.26841497    -0.08200
C831        C  0.24254932  0.52563690  0.29836016     0.05300
C832        C  0.24194703  0.48930707  0.29625773    -0.09400
C833        C  0.21807340  0.47199505  0.29256166     0.00300
C834        C  0.19437774  0.49143073  0.29071703     0.00100
C835        C  0.19460519  0.52697280  0.29621193    -0.12900
C836        C  0.21856147  0.54417260  0.30009848     0.00600
C837        C  0.21879092  0.43470154  0.28936679     0.39900
C838        C  0.21832043  0.58124267  0.30404957     0.36500
C839        C  0.24994966  0.56826501  0.26013671     0.36200
C840        C  0.33723513  0.53637224  0.31435166     0.37000
N841        N  0.21941329  0.40484724  0.28678052    -0.43800
N842        N  0.21817318  0.61096044  0.30718232    -0.44200
N843        N  0.35453806  0.52869954  0.32551405    -0.41600
N844        N  0.23261361  0.57332752  0.24846191    -0.43000
H845        H  0.29925768  0.58497576  0.25322940     0.13100
H846        H  0.28715776  0.52177628  0.32162109     0.09600
H847        H  0.26038412  0.47481434  0.29555392     0.10700
H848        H  0.17647189  0.54208153  0.29552050     0.16500
C849        C  0.98956442  0.54566765  0.95064143    -0.01700
C850        C  0.01175645  0.55264702  0.96350579     0.06900
C851        C  0.00912897  0.57506120  0.98099955    -0.07700
C852        C  0.98422778  0.58669322  0.98754815     0.04300
C853        C  0.96122211  0.57501309  0.97666303    -0.14900
C854        C  0.96445024  0.55655550  0.95737332    -0.08200
C855        C  0.03630632  0.53174489  0.96217435     0.05300
C856        C  0.06065321  0.54887669  0.95987981    -0.09400
C857        C  0.08440375  0.53206916  0.96508821     0.00300
C858        C  0.08385403  0.49728985  0.97279208     0.00100
C859        C  0.05958733  0.47934033  0.97308641    -0.12900
C860        C  0.03593255  0.49626076  0.96808518     0.00600
C861        C  0.10848953  0.55237710  0.96419092     0.39900
C862        C  0.01135366  0.47769234  0.97146783     0.36500
C863        C  0.99205670  0.52598796  0.93110828     0.36200
C864        C  0.98316651  0.60918050  0.00602861     0.37000
N865        N  0.12774422  0.56874147  0.96349698    -0.43800
N866        N  0.99162422  0.46296895  0.97422374    -0.44200
N867        N  0.98234144  0.62720749  0.02082354    -0.41600
N868        N  0.99411086  0.51041175  0.91537842    -0.43000
H869        H  0.94729791  0.54894745  0.94806737     0.13100
H870        H  0.02640084  0.58137231  0.99056327     0.09600
H871        H  0.06090132  0.57624358  0.95552989     0.10700
H872        H  0.05880656  0.45258706  0.97864880     0.16500
C873        C  0.11943096  0.41748583  0.14748247    -0.01700
C874        C  0.13592530  0.38953768  0.14118920     0.06900
C875        C  0.14245190  0.36380346  0.15620814    -0.07700
C876        C  0.13448357  0.36703986  0.17758784     0.04300
C877        C  0.11983183  0.39650829  0.18415424    -0.14900
C878        C  0.11174452  0.42087433  0.16883677    -0.08200
C879        C  0.14796780  0.38864768  0.11948710     0.05300
C880        C  0.16384348  0.41684936  0.11304880    -0.09400
C881        C  0.17127623  0.42089090  0.09167851     0.00300
C882        C  0.16320948  0.39610794  0.07642037     0.00100
C883        C  0.14997853  0.36588864  0.08324749    -0.12900
C884        C  0.14226959  0.36199599  0.10466042     0.00600
C885        C  0.18575354  0.45175322  0.08545264     0.39900
C886        C  0.12666779  0.33199351  0.11061359     0.36500
C887        C  0.11098750  0.44380031  0.13246723     0.36200
C888        C  0.14368686  0.34152281  0.19280542     0.37000
N889        N  0.19738227  0.47642355  0.08040911    -0.43800
N890        N  0.11422912  0.30789138  0.11542420    -0.44200
N891        N  0.15110541  0.32092186  0.20488924    -0.41600
N892        N  0.10428622  0.46491465  0.12043806    -0.43000
H893        H  0.10074035  0.44375078  0.17383201     0.13100
H894        H  0.15501655  0.34221767  0.15149455     0.09600
H895        H  0.16904381  0.43687408  0.12452498     0.10700
H896        H  0.14348679  0.34691039  0.07153271     0.16500
C897        C  0.38786978  0.17472888  0.84652694    -0.01700
C898        C  0.39788726  0.15657524  0.86444338     0.06900
C899        C  0.41704901  0.13060462  0.86104717    -0.07700
C900        C  0.42524098  0.12141642  0.84039127     0.04300
C901        C  0.41455441  0.13860604  0.82239241    -0.14900
C902        C  0.39640637  0.16588003  0.82575634    -0.08200
C903        C  0.38743189  0.16153711  0.88669872     0.05300
C904        C  0.36114018  0.15192114  0.89136514    -0.09400
C905        C  0.35251638  0.14783081  0.91261257     0.00300
C906        C  0.37023923  0.15346455  0.92967392     0.00100
C907        C  0.39575491  0.16604547  0.92505801    -0.12900
C908        C  0.40437638  0.17025435  0.90385025     0.00600
C909        C  0.32587729  0.13576990  0.91657118     0.39900
C910        C  0.43112216  0.18207122  0.90003181     0.36500
C911        C  0.36847546  0.20202926  0.84901858     0.36200
C912        C  0.44420141  0.09349115  0.83804105     0.37000
N913        N  0.30445539  0.12635966  0.91978675    -0.43800
N914        N  0.45253572  0.19162848  0.89693476    -0.44200
N915        N  0.45938496  0.07110125  0.83619479    -0.41600
N916        N  0.35291734  0.22395270  0.85092856    -0.43000
H917        H  0.38771637  0.17892678  0.81209513     0.13100
H918        H  0.42484776  0.11633713  0.87460507     0.09600
H919        H  0.34784598  0.14525337  0.87840366     0.10700
H920        H  0.40963309  0.17022358  0.93802526     0.16500
C921        C  0.50719657  0.06154669  0.97992747    -0.01700
C922        C  0.51060414  0.04538438  0.95990668     0.06900
C923        C  0.48912804  0.04278467  0.94590078    -0.07700
C924        C  0.46395092  0.05443883  0.95202323     0.04300
C925        C  0.45997127  0.06805146  0.97285442    -0.14900
C926        C  0.48213615  0.07283180  0.98614400    -0.08200
C927        C  0.53537979  0.02656325  0.95518024     0.05300
C928        C  0.53516274  0.99021947  0.95736100    -0.09400
C929        C  0.55866211  0.97213681  0.96131705     0.00300
C930        C  0.58263893  0.99087343  0.96337264     0.00100
C931        C  0.58320771  0.02633789  0.95771146    -0.12900
C932        C  0.55970398  0.04428799  0.95361246     0.00600
C933        C  0.55739901  0.93481861  0.96426274     0.39900
C934        C  0.56070986  0.08140300  0.94990822     0.36500
C935        C  0.52868322  0.06438604  0.99510199     0.36200
C936        C  0.44275420  0.05149535  0.93666104     0.37000
N937        N  0.55641559  0.90490912  0.96653350    -0.43800
N938        N  0.56149064  0.11115618  0.94696470    -0.44200
N939        N  0.42581353  0.04928377  0.92429401    -0.41600
N940        N  0.54590968  0.06663263  0.00720938    -0.43000
H941        H  0.47980644  0.08376461  0.00199634     0.13100
H942        H  0.49189574  0.03057264  0.93044588     0.09600
H943        H  0.51640851  0.97641065  0.95792752     0.10700
H944        H  0.60161013  0.04088324  0.95848557     0.16500
C945        C  0.65829270  0.91682054  0.10506589    -0.01700
C946        C  0.64365039  0.88716701  0.11145653     0.06900
C947        C  0.63971110  0.86004565  0.09674569    -0.07700
C948        C  0.64800748  0.86357136  0.07544289     0.04300
C949        C  0.66039538  0.89470128  0.06868360    -0.14900
C950        C  0.66638058  0.92037799  0.08383397    -0.08200
C951        C  0.63053476  0.88592290  0.13276567     0.05300
C952        C  0.61295256  0.91287560  0.13823894    -0.09400
C953        C  0.60462820  0.91747023  0.15935133     0.00300
C954        C  0.61294603  0.89389033  0.17524174     0.00100
C955        C  0.62775098  0.86448310  0.16927332    -0.12900
C956        C  0.63692194  0.86057367  0.14824751     0.00600
C957        C  0.58968909  0.94836025  0.16472689     0.39900
C958        C  0.65504694  0.83252105  0.14356551     0.36500
C959        C  0.66408546  0.94484515  0.11974324     0.36200
C960        C  0.64107276  0.83657944  0.06038504     0.37000
N961        N  0.57788025  0.97324542  0.16901025    -0.43800
N962        N  0.66965446  0.81007533  0.13988279    -0.44200
N963        N  0.63547432  0.81495374  0.04832809    -0.41600
N964        N  0.66858725  0.96738551  0.13146497    -0.43000
H965        H  0.67572900  0.94444492  0.07870676     0.13100
H966        H  0.62864951  0.83710663  0.10154400     0.09600
H967        H  0.60740016  0.93198142  0.12628409     0.10700
H968        H  0.63472782  0.84670900  0.18151240     0.16500
C969        C  0.24513509  0.99261702  0.76443386    -0.01700
C970        C  0.24715083  0.01262421  0.78317963     0.06900
C971        C  0.22500638  0.01664349  0.79646878    -0.07700
C972        C  0.20062949  0.00144285  0.79092888     0.04300
C973        C  0.19836482  0.98245899  0.77162760    -0.14900
C974        C  0.22100294  0.97778226  0.75886520    -0.08200
C975        C  0.27211871  0.03116740  0.78760286     0.05300
C976        C  0.27528096  0.06414979  0.77839866    -0.09400
C977        C  0.30055356  0.07698614  0.77376848     0.00300
C978        C  0.32312294  0.05667656  0.77876585     0.00100
C979        C  0.31984551  0.02582301  0.79058374    -0.12900
C980        C  0.29450718  0.01276753  0.79481426     0.00600
C981        C  0.30257037  0.10992437  0.76268283     0.39900
C982        C  0.29191001  0.97867013  0.80434813     0.36500
C983        C  0.26743250  0.98815464  0.75016217     0.36200
C984        C  0.17859261  0.00507434  0.80546768     0.37000
N985        N  0.30411680  0.13619824  0.75368557    -0.43800
N986        N  0.28976620  0.95127280  0.81187864    -0.44200
N987        N  0.16096001  0.00774775  0.81718063    -0.41600
N988        N  0.28535355  0.98472227  0.73881670    -0.43000
H989        H  0.21974783  0.96347535  0.74396910     0.13100
H990        H  0.22672178  0.03188464  0.81097521     0.09600
H991        H  0.25797649  0.07825063  0.77283987     0.10700
H992        H  0.33697037  0.01018079  0.79475091     0.16500
C993        C  0.13309109  0.85421007  0.64943422    -0.01700
C994        C  0.12345938  0.87896540  0.63470378     0.06900
C995        C  0.10263977  0.90108292  0.64090350    -0.07700
C996        C  0.09423475  0.90237256  0.66218350     0.04300
C997        C  0.10647987  0.88097948  0.67752545    -0.14900
C998        C  0.12441363  0.85529485  0.67072470    -0.08200
C999        C  0.13669430  0.88538692  0.61379894     0.05300
C1000       C  0.13663564  0.85953719  0.59795956    -0.09400
C1001       C  0.14628534  0.86664821  0.57738067     0.00300
C1002       C  0.15599559  0.90026366  0.57239408     0.00100
C1003       C  0.15759788  0.92530946  0.58864663    -0.12900
C1004       C  0.14835055  0.91806686  0.60923417     0.00600
C1005       C  0.14374987  0.84003298  0.56122212     0.39900
C1006       C  0.15044033  0.94493845  0.62530745     0.36500
C1007       C  0.15369326  0.82989660  0.64364478     0.36200
C1008       C  0.07477189  0.92801810  0.66839722     0.37000
N1009       N  0.14171786  0.81867994  0.54828459    -0.43800
N1010       N  0.15206179  0.96640765  0.63821456    -0.44200
N1011       N  0.05911697  0.94844674  0.67345115    -0.41600
N1012       N  0.17013891  0.81032887  0.63895564    -0.43000
H1013       H  0.13392085  0.83877120  0.68248459     0.13100
H1014       H  0.09444431  0.91933166  0.62945886     0.09600
H1015       H  0.12789385  0.83432967  0.60137891     0.10700
H1016       H  0.16496611  0.95119029  0.58496586     0.16500
C1017       C  0.79823926  0.01880226  0.30107854    -0.01700
C1018       C  0.77505708  0.03549047  0.29392838     0.06900
C1019       C  0.77644623  0.06971871  0.28620485    -0.07700
C1020       C  0.80101548  0.08532823  0.28242225     0.04300
C1021       C  0.82440931  0.06639908  0.28655606    -0.14900
C1022       C  0.82279982  0.03453686  0.29752013    -0.08200
C1023       C  0.75104594  0.01526600  0.28887891     0.05300
C1024       C  0.72748626  0.02150044  0.30002415    -0.09400
C1025       C  0.70361428  0.00663299  0.29313763     0.00300
C1026       C  0.70320695  0.98568679  0.27449838     0.00100
C1027       C  0.72724716  0.97816204  0.26413798    -0.12900
C1028       C  0.75096290  0.99286314  0.27104998     0.00600
C1029       C  0.68001395  0.01339107  0.30550099     0.39900
C1030       C  0.77469177  0.98653025  0.25866503     0.36500
C1031       C  0.79744232  0.98393881  0.30973340     0.36200
C1032       C  0.80172356  0.11976918  0.27313314     0.37000
N1033       N  0.66112432  0.01871691  0.31546639    -0.43800
N1034       N  0.79373127  0.98160344  0.24880293    -0.44200
N1035       N  0.80223323  0.14743019  0.26578212    -0.41600
N1036       N  0.79683424  0.95592110  0.31655149    -0.43000
H1037       H  0.84070685  0.02008887  0.30115484     0.13100
H1038       H  0.75849389  0.08283119  0.28109996     0.09600
H1039       H  0.72767093  0.03868545  0.31376339     0.10700
H1040       H  0.72744319  0.96218484  0.24986213     0.16500
C1041       C  0.98628692  0.03440237  0.44625980    -0.01700
C1042       C  0.00961754  0.04099398  0.45784211     0.06900
C1043       C  0.00842341  0.06165614  0.47620472    -0.07700
C1044       C  0.98423041  0.07285064  0.48444231     0.04300
C1045       C  0.96026044  0.06308919  0.47421932    -0.14900
C1046       C  0.96181434  0.04531648  0.45452001    -0.08200
C1047       C  0.03472827  0.02210833  0.45396509     0.05300
C1048       C  0.05803335  0.04158271  0.45137039    -0.09400
C1049       C  0.08274875  0.02715556  0.45632739     0.00300
C1050       C  0.08425769  0.99226621  0.46365341     0.00100
C1051       C  0.06124350  0.97166223  0.46339835    -0.12900
C1052       C  0.03655131  0.98634684  0.45898661     0.00600
C1053       C  0.10543289  0.05014380  0.45631367     0.39900
C1054       C  0.01321891  0.96535737  0.46271654     0.36500
C1055       C  0.98705846  0.01570801  0.42627325     0.36200
C1056       C  0.98509494  0.09295649  0.50391110     0.37000
N1057       N  0.12352551  0.06869372  0.45642171    -0.43800
N1058       N  0.99452266  0.94864098  0.46585290    -0.44200
N1059       N  0.98623374  0.10879583  0.51959657    -0.41600
N1060       N  0.98778804  0.00086234  0.41020462    -0.43000
H1061       H  0.94387951  0.03860054  0.44594167     0.13100
H1062       H  0.02647766  0.06718457  0.48499285     0.09600
H1063       H  0.05662033  0.06914428  0.44768433     0.10700
H1064       H  0.06215820  0.94474889  0.46864884     0.16500
C1065       C  0.89895782  0.17584954  0.40610411    -0.01700
C1066       C  0.88646029  0.15893657  0.38878289     0.06900
C1067       C  0.86440948  0.13764910  0.39296391    -0.07700
C1068       C  0.85595270  0.13120165  0.41397559     0.04300
C1069       C  0.86937407  0.14651042  0.43142947    -0.14900
C1070       C  0.89027893  0.16974990  0.42718973    -0.08200
C1071       C  0.89757681  0.15977929  0.36656757     0.05300
C1072       C  0.92127696  0.14184513  0.36234822    -0.09400
C1073       C  0.93008942  0.13648519  0.34130611     0.00300
C1074       C  0.91542992  0.14976914  0.32388989     0.00100
C1075       C  0.89275161  0.16986179  0.32818145    -0.12900
C1076       C  0.88363384  0.17461289  0.34925533     0.00600
C1077       C  0.95363018  0.11583830  0.33786526     0.39900
C1078       C  0.85933551  0.19358477  0.35271082     0.36500
C1079       C  0.92123628  0.19871667  0.40259664     0.36200
C1080       C  0.83404589  0.10757574  0.41734845     0.37000
N1081       N  0.97248069  0.09929272  0.33506043    -0.43800
N1082       N  0.83983542  0.20876825  0.35550721    -0.44200
N1083       N  0.81649943  0.08866807  0.42011371    -0.41600
N1084       N  0.93906545  0.21709895  0.39970281    -0.43000
H1085       H  0.90101009  0.18129268  0.44040960     0.13100
H1086       H  0.85460018  0.12456053  0.37981311     0.09600
H1087       H  0.93215133  0.13027801  0.37548580     0.10700
H1088       H  0.88099134  0.17959816  0.31498301     0.16500
C1089       C  0.95863471  0.65801375  0.65521537    -0.01700
C1090       C  0.94902283  0.63617877  0.63877544     0.06900
C1091       C  0.93667993  0.60477941  0.64440733    -0.07700
C1092       C  0.93172876  0.59633329  0.66580242     0.04300
C1093       C  0.93892118  0.61988445  0.68232306    -0.14900
C1094       C  0.95346494  0.64984393  0.67673004    -0.08200
C1095       C  0.94876263  0.64671960  0.61576731     0.05300
C1096       C  0.96015476  0.62474891  0.60028732    -0.09400
C1097       C  0.95574178  0.63013661  0.57831913     0.00300
C1098       C  0.93951670  0.65806607  0.57143722     0.00100
C1099       C  0.92980648  0.68134686  0.58701423    -0.12900
C1100       C  0.93381572  0.67564439  0.60883607     0.00600
C1101       C  0.96671549  0.60528294  0.56347239     0.39900
C1102       C  0.92019446  0.69810432  0.62375393     0.36500
C1103       C  0.97326308  0.68935680  0.65036397     0.36200
C1104       C  0.91868545  0.56352667  0.67011003     0.37000
N1105       N  0.97555582  0.58529847  0.55160971    -0.43800
N1106       N  0.90919049  0.71607374  0.63565430    -0.44200
N1107       N  0.90820850  0.53723709  0.67343730    -0.41600
N1108       N  0.98495531  0.71452713  0.64648792    -0.43000
H1109       H  0.95962640  0.66791714  0.68906641     0.13100
H1110       H  0.92969456  0.58745552  0.63193184     0.09600
H1111       H  0.97153494  0.60231833  0.60545059     0.10700
H1112       H  0.91758622  0.70324964  0.58224681     0.16500
C1113       C  0.09126901  0.78564052  0.48377523    -0.01700
C1114       C  0.06792090  0.78381363  0.49611939     0.06900
C1115       C  0.06388155  0.80847981  0.51221873    -0.07700
C1116       C  0.08202423  0.83552908  0.51570676     0.04300
C1117       C  0.10516185  0.83854351  0.50276721    -0.14900
C1118       C  0.10967943  0.81269133  0.48720437    -0.08200
C1119       C  0.04602586  0.75879942  0.49143483     0.05300
C1120       C  0.04150530  0.73026745  0.50503189    -0.09400
C1121       C  0.01834842  0.70991252  0.50323066     0.00300
C1122       C  0.99889239  0.71852772  0.48780367     0.00100
C1123       C  0.00445931  0.74586460  0.47342956    -0.12900
C1124       C  0.02757152  0.76589815  0.47516284     0.00600
C1125       C  0.01447909  0.68182293  0.51823828     0.39900
C1126       C  0.03106972  0.79516935  0.46093399     0.36500
C1127       C  0.09648896  0.76025800  0.46733089     0.36200
C1128       C  0.07593231  0.85969694  0.53271723     0.37000
N1129       N  0.01149448  0.65921506  0.53023567    -0.43800
N1130       N  0.03385632  0.81868575  0.44958227    -0.44200
N1131       N  0.07088739  0.87902970  0.54630734    -0.41600
N1132       N  0.10066042  0.73979876  0.45418680    -0.43000
H1133       H  0.12721705  0.81411836  0.47723714     0.13100
H1134       H  0.04595326  0.80713663  0.52176817     0.09600
H1135       H  0.05562591  0.72473121  0.51761867     0.10700
H1136       H  0.99008523  0.75273494  0.46127957     0.16500
C1137       C  0.91612692  0.86330970  0.52303336    -0.01700
C1138       C  0.89590015  0.87477548  0.53687683     0.06900
C1139       C  0.87963419  0.85021740  0.54694785    -0.07700
C1140       C  0.88220837  0.81458463  0.54247147     0.04300
C1141       C  0.90121253  0.80310891  0.52728473    -0.14900
C1142       C  0.91867742  0.82782303  0.51843084    -0.08200
C1143       C  0.88887326  0.91218133  0.53792974     0.05300
C1144       C  0.86684512  0.92343713  0.52621355    -0.09400
C1145       C  0.86313049  0.95879629  0.52176694     0.00300
C1146       C  0.88204241  0.98343686  0.52884390     0.00100
C1147       C  0.90225706  0.97242430  0.54274911    -0.12900
C1148       C  0.90571796  0.93701373  0.54737836     0.00600
C1149       C  0.84007122  0.96889353  0.50958535     0.39900
C1150       C  0.92726936  0.92655675  0.56107752     0.36500
C1151       C  0.93313405  0.88776652  0.51203674     0.36200
C1152       C  0.86382305  0.79104485  0.55269040     0.37000
N1153       N  0.82150401  0.97693087  0.49993690    -0.43800
N1154       N  0.94443915  0.91823914  0.57219378    -0.44200
N1155       N  0.84906476  0.77227665  0.56094689    -0.41600
N1156       N  0.94666333  0.90749143  0.50326574    -0.43000
H1157       H  0.93361744  0.81967170  0.50702066     0.13100
H1158       H  0.86403372  0.85911042  0.55755262     0.09600
H1159       H  0.85340081  0.90435022  0.51943344     0.10700
H1160       H  0.91646281  0.99112232  0.54887016     0.16500
C1161       C  0.78725445  0.50247585  0.48820811    -0.01700
C1162       C  0.80142489  0.49963807  0.50751533     0.06900
C1163       C  0.79171802  0.47733038  0.52353459    -0.07700
C1164       C  0.76763128  0.45926175  0.52091111     0.04300
C1165       C  0.75253598  0.46405472  0.50210838    -0.14900
C1166       C  0.76320923  0.48479546  0.48567179    -0.08200
C1167       C  0.82387977  0.52377027  0.51217947     0.05300
C1168       C  0.81944560  0.55119441  0.52647150    -0.09400
C1169       C  0.83760568  0.57865021  0.52845276     0.00300
C1170       C  0.86086794  0.57938858  0.51562333     0.00100
C1171       C  0.86634656  0.55011542  0.50277751    -0.12900
C1172       C  0.84809987  0.52255919  0.50094299     0.00600
C1173       C  0.83152581  0.60556079  0.54381738     0.39900
C1174       C  0.85436113  0.49362256  0.48712959     0.36500
C1175       C  0.79595641  0.52548292  0.47133748     0.36200
C1176       C  0.75814949  0.43789356  0.53827954     0.37000
N1177       N  0.82654505  0.62692722  0.55622484    -0.43800
N1178       N  0.85943897  0.47036137  0.47611151    -0.44200
N1179       N  0.75059576  0.42063813  0.55216826    -0.41600
N1180       N  0.80295583  0.54392792  0.45784275    -0.43000
H1181       H  0.75212413  0.48846860  0.47101580     0.13100
H1182       H  0.80246733  0.47512871  0.53845245     0.09600
H1183       H  0.80109056  0.55190984  0.53549750     0.10700
H1184       H  0.88440880  0.54931077  0.49341826     0.16500
C1185       C  0.81808880  0.66186239  0.15177606    -0.01700
C1186       C  0.83540298  0.64193337  0.13891083     0.06900
C1187       C  0.85724977  0.62564167  0.14845027    -0.07700
C1188       C  0.86253075  0.62971137  0.17019687     0.04300
C1189       C  0.84536205  0.64967024  0.18313947    -0.14900
C1190       C  0.82297132  0.66521445  0.17383448    -0.08200
C1191       C  0.83297939  0.63960492  0.11522699     0.05300
C1192       C  0.83879209  0.66914441  0.10282294    -0.09400
C1193       C  0.84343779  0.66622915  0.08077114     0.00300
C1194       C  0.84216447  0.63324549  0.07078139     0.00100
C1195       C  0.83457562  0.60417106  0.08296040    -0.12900
C1196       C  0.82986668  0.60713331  0.10494871     0.00600
C1197       C  0.85230905  0.69671163  0.06927477     0.39900
C1198       C  0.82301926  0.57620304  0.11686684     0.36500
C1199       C  0.79571268  0.67976104  0.14257997     0.36200
C1200       C  0.88643283  0.61433562  0.17872202     0.37000
N1201       N  0.85959131  0.72109081  0.06010164    -0.43800
N1202       N  0.81749786  0.55143633  0.12643254    -0.44200
N1203       N  0.90570004  0.60233824  0.18550770    -0.41600
N1204       N  0.77784828  0.69426827  0.13517541    -0.43000
H1205       H  0.81011909  0.68139609  0.18353274     0.13100
H1206       H  0.87091475  0.61081936  0.13862798     0.09600
H1207       H  0.84163515  0.69408511  0.11063752     0.10700
H1208       H  0.83356077  0.57874053  0.07544652     0.16500
C1209       C  0.68909665  0.78493619  0.26636428    -0.01700
C1210       C  0.71003128  0.77876318  0.25186565     0.06900
C1211       C  0.71044744  0.79716495  0.23253897    -0.07700
C1212       C  0.69170356  0.82314713  0.22818247     0.04300
C1213       C  0.67204283  0.83163545  0.24356675    -0.14900
C1214       C  0.67045517  0.81124456  0.26219356    -0.08200
C1215       C  0.73302482  0.75581051  0.25714739     0.05300
C1216       C  0.73955780  0.72784527  0.24362344    -0.09400
C1217       C  0.76320711  0.70892884  0.24639453     0.00300
C1218       C  0.78074869  0.71766703  0.26318314     0.00100
C1219       C  0.77352262  0.74480359  0.27715098    -0.12900
C1220       C  0.75032612  0.76413578  0.27407945     0.00600
C1221       C  0.76992323  0.68284070  0.23071011     0.39900
C1222       C  0.74598727  0.79435783  0.28738475     0.36500
C1223       C  0.68658407  0.76494164  0.28577624     0.36200
C1224       C  0.69332611  0.84053902  0.20775232     0.37000
N1225       N  0.77525583  0.66207290  0.21802435    -0.43800
N1226       N  0.74255152  0.81868575  0.29794418    -0.44200
N1227       N  0.69468748  0.85435763  0.19136053    -0.41600
N1228       N  0.68455970  0.74894606  0.30135408    -0.43000
H1229       H  0.65523685  0.81668720  0.27396135     0.13100
H1230       H  0.72613057  0.79208696  0.22109345     0.09600
H1231       H  0.72666587  0.72174925  0.23029545     0.10700
H1232       H  0.78684352  0.75229070  0.28993404     0.16500
C1233       C  0.89839434  0.85189339  0.21047897    -0.01700
C1234       C  0.88041301  0.87592643  0.21941034     0.06900
C1235       C  0.85785891  0.86363560  0.23009947    -0.07700
C1236       C  0.85448971  0.82804911  0.23396971     0.04300
C1237       C  0.87390932  0.80415778  0.22691913    -0.14900
C1238       C  0.89495157  0.81620142  0.21419411    -0.08200
C1239       C  0.88647842  0.91360667  0.22081848     0.05300
C1240       C  0.86903132  0.93776496  0.21167601    -0.09400
C1241       C  0.87144278  0.97345832  0.21602714     0.00300
C1242       C  0.89185041  0.98540494  0.22975002     0.00100
C1243       C  0.91003984  0.96114009  0.23793875    -0.12900
C1244       C  0.90732010  0.92558656  0.23387987     0.00600
C1245       C  0.85145499  0.99650961  0.20752034     0.39900
C1246       C  0.92482536  0.90175000  0.24482027     0.36500
C1247       C  0.92133074  0.86344611  0.19863106     0.36200
C1248       C  0.83146676  0.81691418  0.24588845     0.37000
N1249       N  0.83531358  0.01479687  0.20070268    -0.43800
N1250       N  0.93877956  0.88267857  0.25365928    -0.44200
N1251       N  0.81300744  0.80808699  0.25544225    -0.41600
N1252       N  0.93978601  0.87275680  0.18924723    -0.43000
H1253       H  0.90985607  0.79805544  0.20854312     0.13100
H1254       H  0.84377121  0.88206918  0.23669643     0.09600
H1255       H  0.85271750  0.92848148  0.20193623     0.10700
H1256       H  0.92579650  0.96976144  0.24846672     0.16500
C1257       C  0.91859116  0.65176932  0.39193778    -0.01700
C1258       C  0.89735550  0.62893249  0.38752094     0.06900
C1259       C  0.88599475  0.61008657  0.40447245    -0.07700
C1260       C  0.89437719  0.61539403  0.42568221     0.04300
C1261       C  0.91452197  0.63992311  0.43019880    -0.14900
C1262       C  0.92689262  0.65708551  0.41305503    -0.08200
C1263       C  0.88469536  0.62858509  0.36591639     0.05300
C1264       C  0.89841842  0.61457838  0.34837126    -0.09400
C1265       C  0.88952382  0.62021590  0.32735420     0.00300
C1266       C  0.86641430  0.64012226  0.32360271     0.00100
C1267       C  0.85198062  0.65248436  0.34123234    -0.12900
C1268       C  0.86080698  0.64675430  0.36220233     0.00600
C1269       C  0.90597473  0.60854463  0.30989331     0.39900
C1270       C  0.84621896  0.66229817  0.37960907     0.36500
C1271       C  0.93066193  0.67232871  0.37523748     0.36200
C1272       C  0.88018671  0.59799312  0.44259937     0.37000
N1273       N  0.91931043  0.59941151  0.29593976    -0.43800
N1274       N  0.83466824  0.67475041  0.39363253    -0.44200
N1275       N  0.86852501  0.58405027  0.45601924    -0.41600
N1276       N  0.94022598  0.68882926  0.36181772    -0.43000
H1277       H  0.94205971  0.67640662  0.41631485     0.13100
H1278       H  0.86952880  0.59269859  0.40125693     0.09600
H1279       H  0.91696277  0.60100536  0.35104399     0.10700
H1280       H  0.83454613  0.66840793  0.33855804     0.16500
C1281       C  0.93410517  0.52552573  0.24946788    -0.01700
C1282       C  0.96064642  0.52986104  0.24292499     0.06900
C1283       C  0.96861511  0.56209801  0.23470497    -0.07700
C1284       C  0.95111462  0.59034753  0.23369388     0.04300
C1285       C  0.92458361  0.58683390  0.24118536    -0.14900
C1286       C  0.91639042  0.55379915  0.24857948    -0.08200
C1287       C  0.98140990  0.50275695  0.24626999     0.05300
C1288       C  0.99442247  0.48811644  0.22853406    -0.09400
C1289       C  0.01775918  0.46845930  0.23105527     0.00300
C1290       C  0.02860707  0.46367643  0.25160216     0.00100
C1291       C  0.01456272  0.47643208  0.26936926    -0.12900
C1292       C  0.99125453  0.49580406  0.26689360     0.00600
C1293       C  0.03140364  0.45614774  0.21226298     0.39900
C1294       C  0.97908650  0.51082656  0.28564164     0.36500
C1295       C  0.92467716  0.49229567  0.25713705     0.36200
C1296       C  0.96149670  0.62249561  0.22504584     0.37000
N1297       N  0.04241297  0.44619688  0.19724230    -0.43800
N1298       N  0.96929015  0.52293370  0.30061408    -0.44200
N1299       N  0.96995630  0.64815233  0.21810119    -0.41600
N1300       N  0.91711010  0.46560369  0.26321532    -0.43000
H1301       H  0.89620662  0.55006577  0.25406108     0.13100
H1302       H  0.98901853  0.56551748  0.22961179     0.09600
H1303       H  0.98709310  0.49360487  0.21262299     0.10700
H1304       H  0.02268362  0.47291097  0.28524035     0.16500
C1305       C  0.16979225  0.87845975  0.35893323    -0.01700
C1306       C  0.19497382  0.88931291  0.36594260     0.06900
C1307       C  0.21415464  0.89898404  0.35073672    -0.07700
C1308       C  0.20852296  0.89770918  0.32876187     0.04300
C1309       C  0.18321766  0.88673953  0.32178640    -0.14900
C1310       C  0.16412313  0.87754438  0.33718370    -0.08200
C1311       C  0.19970329  0.89531588  0.38905162     0.05300
C1312       C  0.19765764  0.86741670  0.40358674    -0.09400
C1313       C  0.19420664  0.87359536  0.42554486     0.00300
C1314       C  0.19304310  0.90822926  0.43309558     0.00100
C1315       C  0.19786927  0.93568128  0.41870410    -0.12900
C1316       C  0.20093166  0.92959104  0.39692111     0.00600
C1317       C  0.18958719  0.84428958  0.43951306     0.39900
C1318       C  0.20251837  0.95923952  0.38275390     0.36500
C1319       C  0.14912596  0.86879629  0.37379656     0.36200
C1320       C  0.22927029  0.90657861  0.31384685     0.37000
N1321       N  0.18582893  0.82078131  0.45069460    -0.43800
N1322       N  0.20364244  0.98288481  0.37132119    -0.44200
N1323       N  0.24592502  0.91368710  0.30189929    -0.41600
N1324       N  0.13269434  0.86090019  0.38575738    -0.43000
H1325       H  0.14460350  0.86896531  0.33219034     0.13100
H1326       H  0.23345506  0.90780036  0.35608757     0.09600
H1327       H  0.19673602  0.84094654  0.39755948     0.10700
H1328       H  0.19771378  0.96242184  0.42432324     0.16500
C1329       C  0.03751882  0.06342721  0.24332486    -0.01700
C1330       C  0.04353022  0.03273423  0.25491002     0.06900
C1331       C  0.02598494  0.02207466  0.27098948    -0.07700
C1332       C  0.00229385  0.03984839  0.27488837     0.04300
C1333       C  0.99496372  0.06882265  0.26210458    -0.14900
C1334       C  0.01327846  0.08094111  0.24681687    -0.08200
C1335       C  0.06739309  0.01032915  0.25081750     0.05300
C1336       C  0.08399087  0.00190066  0.26808874    -0.09400
C1337       C  0.10327765  0.97564237  0.26648516     0.00300
C1338       C  0.10673864  0.95729777  0.24707660     0.00100
C1339       C  0.09084238  0.96668230  0.22952521    -0.12900
C1340       C  0.07129038  0.99267359  0.23124252     0.00600
C1341       C  0.11752603  0.96610399  0.28559471     0.39900
C1342       C  0.05438229  0.99898750  0.21307500     0.36500
C1343       C  0.05602289  0.07774787  0.22809347     0.36200
C1344       C  0.98604014  0.02763760  0.29236863     0.37000
N1345       N  0.12875549  0.95828871  0.30096726    -0.43800
N1346       N  0.04091745  0.00409854  0.19846226    -0.44200
N1347       N  0.97307976  0.01784639  0.30639403    -0.41600
N1348       N  0.07086961  0.08937491  0.21593033    -0.43000
H1349       H  0.00837200  0.10347291  0.23715734     0.13100
H1350       H  0.03060965  0.99913026  0.28039634     0.09600
H1351       H  0.08092439  0.01475828  0.28331315     0.10700
H1352       H  0.09317001  0.95293575  0.21451202     0.16500
C1353       C  0.05160306  0.76310423  0.29714642    -0.01700
C1354       C  0.02809017  0.78067579  0.29160593     0.06900
C1355       C  0.02947232  0.81500981  0.28421970    -0.07700
C1356       C  0.05384897  0.83049753  0.27969921     0.04300
C1357       C  0.07747613  0.81093055  0.28231093    -0.14900
C1358       C  0.07606227  0.77828895  0.29240852    -0.08200
C1359       C  0.00266196  0.76193615  0.28940396     0.05300
C1360       C  0.98047738  0.77314194  0.30101936    -0.09400
C1361       C  0.95519329  0.75996587  0.29642125     0.00300
C1362       C  0.95204379  0.73499946  0.27997402     0.00100
C1363       C  0.97462013  0.72259263  0.26925511    -0.12900
C1364       C  0.99962255  0.73625585  0.27350550     0.00600
C1365       C  0.93286223  0.77460609  0.30770675     0.39900
C1366       C  0.02137228  0.72574878  0.25991545     0.36500
C1367       C  0.05090816  0.72857916  0.30629116     0.36200
C1368       C  0.05389268  0.86578716  0.27159769     0.37000
N1369       N  0.91499577  0.78647494  0.31672974    -0.43800
N1370       N  0.03872306  0.71750253  0.24893330    -0.44200
N1371       N  0.05387559  0.89404494  0.26512195    -0.41600
N1372       N  0.05028177  0.70089144  0.31359479    -0.43000
H1373       H  0.09416023  0.76319213  0.29519682     0.13100
H1374       H  0.01106201  0.82909982  0.28041548     0.09600
H1375       H  0.98276795  0.79324812  0.31289927     0.10700
H1376       H  0.97261162  0.70350592  0.25668641     0.16500
C1377       C  0.30852320  0.72513082  0.23421518    -0.01700
C1378       C  0.31449886  0.75738708  0.24380749     0.06900
C1379       C  0.34000277  0.76278405  0.25206435    -0.07700
C1380       C  0.35944337  0.73654975  0.25105445     0.04300
C1381       C  0.35343571  0.70377595  0.24166702    -0.14900
C1382       C  0.32783927  0.69901410  0.23307024    -0.08200
C1383       C  0.29348734  0.78413161  0.24716764     0.05300
C1384       C  0.28363986  0.78909978  0.26786146    -0.09400
C1385       C  0.26089920  0.80919983  0.27146890     0.00300
C1386       C  0.24740440  0.82475434  0.25407351     0.00100
C1387       C  0.25862756  0.82218213  0.23358326    -0.12900
C1388       C  0.28145754  0.80203607  0.23003246     0.00600
C1389       C  0.25168928  0.81300278  0.29319214     0.39900
C1390       C  0.29180195  0.79930790  0.20861402     0.36500
C1391       C  0.28217535  0.71745427  0.22650984     0.36200
C1392       C  0.38502388  0.74407485  0.26024500     0.37000
N1393       N  0.24435435  0.81603970  0.31060385    -0.43800
N1394       N  0.30011795  0.79720860  0.19144140    -0.44200
N1395       N  0.40547038  0.75026176  0.26769107    -0.41600
N1396       N  0.26103656  0.71130935  0.22042701    -0.43000
H1397       H  0.32241207  0.67429106  0.22592984     0.13100
H1398       H  0.34457882  0.78743337  0.25968910     0.09600
H1399       H  0.29308984  0.77593272  0.28115505     0.10700
H1400       H  0.24874921  0.83426610  0.22011599     0.16500
C1401       C  0.16275662  0.60158435  0.21560621    -0.01700
C1402       C  0.14167028  0.62549071  0.21721017     0.06900
C1403       C  0.11586026  0.61296909  0.22032848    -0.07700
C1404       C  0.11128231  0.57753975  0.22434661     0.04300
C1405       C  0.13293508  0.55415269  0.22563665    -0.14900
C1406       C  0.15832245  0.56623760  0.21989457    -0.08200
C1407       C  0.14658248  0.66329022  0.22025487     0.05300
C1408       C  0.13696317  0.68775525  0.20548245    -0.09400
C1409       C  0.13885242  0.72373456  0.20959867     0.00300
C1410       C  0.15010881  0.73548521  0.22897679     0.00100
C1411       C  0.16046386  0.71070135  0.24326646    -0.12900
C1412       C  0.15869474  0.67511467  0.23917348     0.00600
C1413       C  0.12967908  0.74787448  0.19356343     0.39900
C1414       C  0.16807078  0.65115382  0.25530800     0.36500
C1415       C  0.18938891  0.61315920  0.21098449     0.36200
C1416       C  0.08426598  0.56629717  0.22768415     0.37000
N1417       N  0.12253319  0.76726281  0.18064103    -0.43800
N1418       N  0.17555181  0.63191067  0.26818624    -0.44200
N1419       N  0.06260710  0.55728080  0.23026594    -0.41600
N1420       N  0.21071406  0.62246595  0.20725999    -0.43000
H1421       H  0.17505136  0.54870847  0.22018318     0.13100
H1422       H  0.09957007  0.63115319  0.22110221     0.09600
H1423       H  0.12771602  0.67871141  0.19089238     0.10700
H1424       H  0.16908902  0.71901549  0.25831795     0.16500
C1425       C  0.10400567  0.92525989  0.85599144    -0.01700
C1426       C  0.09750076  0.89203769  0.86388155     0.06900
C1427       C  0.09125241  0.86532212  0.84938053    -0.07700
C1428       C  0.09197598  0.87113209  0.82721868     0.04300
C1429       C  0.09918314  0.90434813  0.81920994    -0.14900
C1430       C  0.10473166  0.93113393  0.83399240    -0.08200
C1431       C  0.09912017  0.88432014  0.88712283     0.05300
C1432       C  0.08178494  0.90093216  0.90145369    -0.09400
C1433       C  0.08391303  0.89562798  0.92359778     0.00300
C1434       C  0.10368045  0.87312294  0.93172236     0.00100
C1435       C  0.12102842  0.85677909  0.91718987    -0.12900
C1436       C  0.11895789  0.86221268  0.89520455     0.00600
C1437       C  0.06514638  0.91285230  0.93741506     0.39900
C1438       C  0.13801480  0.84565018  0.88129202     0.36500
C1439       C  0.11114613  0.95342704  0.87016705     0.36200
C1440       C  0.08600421  0.84225472  0.81326885     0.37000
N1441       N  0.05008059  0.92673400  0.94845129    -0.43800
N1442       N  0.15330602  0.83243502  0.87015118    -0.44200
N1443       N  0.08117444  0.81905899  0.80212299    -0.41600
N1444       N  0.11686303  0.97592056  0.88157230    -0.43000
H1445       H  0.11004085  0.95696625  0.82842367     0.13100
H1446       H  0.08628716  0.83964948  0.85542879     0.09600
H1447       H  0.06658742  0.91816796  0.89528476     0.10700
H1448       H  0.13655422  0.83971927  0.92301431     0.16500
C1449       C  0.94723158  0.75446243  0.99851382    -0.01700
C1450       C  0.96320325  0.76002350  0.01669790     0.06900
C1451       C  0.95693662  0.74225841  0.03565551    -0.07700
C1452       C  0.93678383  0.71706322  0.03618075     0.04300
C1453       C  0.92203912  0.70961307  0.01752193    -0.14900
C1454       C  0.92665875  0.72981673  0.99915800    -0.08200
C1455       C  0.98859679  0.78000039  0.01537986     0.05300
C1456       C  0.98869723  0.81581161  0.01034130    -0.09400
C1457       C  0.01270730  0.83390641  0.00703610     0.00300
C1458       C  0.03702525  0.81595695  0.00861736     0.00100
C1459       C  0.03676632  0.78061238  0.01446066    -0.12900
C1460       C  0.01306595  0.76267853  0.01783436     0.00600
C1461       C  0.01184967  0.87009699  0.00085839     0.39900
C1462       C  0.01451180  0.72593842  0.02274704     0.36500
C1463       C  0.95290281  0.77160852  0.97850952     0.36200
C1464       C  0.93191981  0.69895484  0.05601563     0.37000
N1465       N  0.01118033  0.89912885  0.99588527    -0.43800
N1466       N  0.01579902  0.69655186  0.02675099    -0.44200
N1467       N  0.92801894  0.68446172  0.07191639    -0.41600
N1468       N  0.95749886  0.78529280  0.96246312    -0.43000
H1469       H  0.91532579  0.72477181  0.98479673     0.13100
H1470       H  0.96880739  0.74678843  0.04981186     0.09600
H1471       H  0.97000748  0.82938198  0.00847184     0.10700
H1472       H  0.05534047  0.76655926  0.01588351     0.16500
C1473       C  0.11529944  0.67574659  0.03741768    -0.01700
C1474       C  0.13846448  0.66233008  0.04698765     0.06900
C1475       C  0.15816572  0.68573944  0.05377676    -0.07700
C1476       C  0.15638087  0.72148111  0.04919200     0.04300
C1477       C  0.13438108  0.73432032  0.03755993    -0.14900
C1478       C  0.11324620  0.71139627  0.03329472    -0.08200
C1479       C  0.14482818  0.62446878  0.04576576     0.05300
C1480       C  0.16659676  0.61459775  0.03327859    -0.09400
C1481       C  0.17079953  0.57981193  0.02761472     0.00300
C1482       C  0.15251531  0.55371145  0.03419575     0.00100
C1483       C  0.13208388  0.56338045  0.04838697    -0.12900
C1484       C  0.12834218  0.59831257  0.05437376     0.00600
C1485       C  0.19349826  0.57254148  0.01425318     0.39900
C1486       C  0.10718664  0.60683481  0.06899321     0.36500
C1487       C  0.09461101  0.65333213  0.02931694     0.36200
C1488       C  0.17828484  0.74352396  0.05532950     0.37000
N1489       N  0.21174229  0.56696475  0.00357591    -0.43800
N1490       N  0.09021946  0.61375837  0.08068376    -0.44200
N1491       N  0.19586672  0.76110337  0.06031246    -0.41600
N1492       N  0.07794993  0.63559767  0.02275184    -0.43000
H1493       H  0.09579298  0.72074393  0.02498029     0.13100
H1494       H  0.17591544  0.67564985  0.06132397     0.09600
H1495       H  0.17968129  0.63451819  0.02691630     0.10700
H1496       H  0.11833701  0.54387599  0.05424443     0.16500
C1497       C  0.13972414  0.92675277  0.15372505    -0.01700
C1498       C  0.14412631  0.90094897  0.13808009     0.06900
C1499       C  0.16023491  0.87227288  0.14310280    -0.07700
C1500       C  0.16987730  0.86739058  0.16380670     0.04300
C1501       C  0.16406899  0.89201561  0.17987035    -0.14900
C1502       C  0.14998561  0.92231681  0.17439715    -0.08200
C1503       C  0.13154826  0.90202064  0.11658578     0.05300
C1504       C  0.13921163  0.92777906  0.10191081    -0.09400
C1505       C  0.13269958  0.92465324  0.08020206     0.00300
C1506       C  0.11845880  0.89525185  0.07298168     0.00100
C1507       C  0.10858287  0.87144686  0.08799338    -0.12900
C1508       C  0.11474042  0.87480767  0.10968193     0.00600
C1509       C  0.14322081  0.94989810  0.06533957     0.39900
C1510       C  0.10473684  0.84898507  0.12441673     0.36500
C1511       C  0.12272942  0.95619066  0.14954756     0.36200
C1512       C  0.18417548  0.83571624  0.16858021     0.37000
N1513       N  0.15165326  0.97015341  0.05344343    -0.43800
N1514       N  0.09666803  0.82834428  0.13622751    -0.44200
N1515       N  0.19547666  0.81025832  0.17245958    -0.41600
N1516       N  0.10895794  0.97969327  0.14628741    -0.43000
H1517       H  0.14473959  0.94085029  0.18677678     0.13100
H1518       H  0.16415819  0.85267840  0.13102461     0.09600
H1519       H  0.15191406  0.94892918  0.10711767     0.10700
H1520       H  0.09771701  0.84872728  0.08254542     0.16500
C1521       C  0.24790348  0.05131082  0.00725220    -0.01700
C1522       C  0.24009956  0.02858015  0.99070173     0.06900
C1523       C  0.25446833  0.02855436  0.97155627    -0.07700
C1524       C  0.27731453  0.04898875  0.96919455     0.04300
C1525       C  0.28632049  0.07005206  0.98628334    -0.14900
C1526       C  0.27077344  0.07197667  0.00490695    -0.08200
C1527       C  0.21952616  0.00121050  0.99399655     0.05300
C1528       C  0.19251836  0.00892447  0.99141201    -0.09400
C1529       C  0.17299341  0.98298242  0.99415223     0.00300
C1530       C  0.18046655  0.94853368  0.99975255     0.00100
C1531       C  0.20767592  0.94121031  0.00212294    -0.12900
C1532       C  0.22699775  0.96694713  0.99930125     0.00600
C1533       C  0.14558643  0.99279600  0.99160196     0.39900
C1534       C  0.25450836  0.95760500  0.00213456     0.36500
C1535       C  0.23364700  0.05219177  0.02722683     0.36200
C1536       C  0.29148947  0.04717800  0.94918627     0.37000
N1537       N  0.12364509  0.00084256  0.98950390    -0.43800
N1538       N  0.27653594  0.95011764  0.00441330    -0.44200
N1539       N  0.30285093  0.04564360  0.93315896    -0.41600
N1540       N  0.22216966  0.05284399  0.04322359    -0.43000
H1541       H  0.27740925  0.08785996  0.01818514     0.13100
H1542       H  0.24846031  0.01127267  0.95874310     0.09600
H1543       H  0.18670063  0.03525610  0.98724316     0.10700
H1544       H  0.21406899  0.91505682  0.00617338     0.16500
C1545       C  0.31847246  0.65105321  0.65319439    -0.01700
C1546       C  0.33689534  0.63346832  0.64004936     0.06900
C1547       C  0.35932564  0.61836112  0.64941999    -0.07700
C1548       C  0.36429669  0.62184201  0.67123311     0.04300
C1549       C  0.34656270  0.64071679  0.68432179    -0.14900
C1550       C  0.32330688  0.65433870  0.67526641    -0.08200
C1551       C  0.33492560  0.63241576  0.61631302     0.05300
C1552       C  0.33914305  0.66325553  0.60467388    -0.09400
C1553       C  0.34447095  0.66218820  0.58265712     0.00300
C1554       C  0.34559392  0.62983219  0.57200015     0.00100
C1555       C  0.33957536  0.59929228  0.58334131    -0.12900
C1556       C  0.33410299  0.60037310  0.60527032     0.00600
C1557       C  0.35133092  0.69414615  0.57180000     0.39900
C1558       C  0.32889204  0.56810627  0.61636874     0.36500
C1559       C  0.29478712  0.66624427  0.64431492     0.36200
C1560       C  0.38821927  0.60648119  0.67974627     0.37000
N1561       N  0.35699193  0.71966530  0.56306112    -0.43800
N1562       N  0.32469279  0.54229497  0.62531186    -0.44200
N1563       N  0.40741029  0.59427069  0.68653170    -0.41600
N1564       N  0.27576134  0.67837328  0.63718948    -0.43000
H1565       H  0.30965162  0.66897732  0.68517828     0.13100
H1566       H  0.37359415  0.60483735  0.63945156     0.09600
H1567       H  0.34019340  0.68793182  0.61306806     0.10700
H1568       H  0.34033754  0.57434404  0.57522229     0.16500
C1569       C  0.46759008  0.55608843  0.75103837    -0.01700
C1570       C  0.46026506  0.52254490  0.74399790     0.06900
C1571       C  0.43403971  0.51655352  0.73746916    -0.07700
C1572       C  0.41522046  0.54364981  0.73779156     0.04300
C1573       C  0.42274868  0.57740279  0.74459909    -0.14900
C1574       C  0.44898128  0.58298427  0.75123917    -0.08200
C1575       C  0.48012809  0.49392845  0.74396550     0.05300
C1576       C  0.48870817  0.48103563  0.76369350    -0.09400
C1577       C  0.51208810  0.46167750  0.76526376     0.00300
C1578       C  0.52726317  0.45454943  0.74680538     0.00100
C1579       C  0.51731284  0.46447735  0.72678014    -0.12900
C1580       C  0.49388075  0.48418861  0.72525354     0.00600
C1581       C  0.52086695  0.45106503  0.78620735     0.39900
C1582       C  0.48544126  0.49644653  0.70457417     0.36500
C1583       C  0.49430855  0.56367886  0.75789678     0.36200
C1584       C  0.38876323  0.53651676  0.73024165     0.37000
N1585       N  0.52767298  0.44262490  0.80306078    -0.43800
N1586       N  0.47859156  0.50622922  0.68799967    -0.44200
N1587       N  0.36755203  0.53083257  0.72415697    -0.41600
N1588       N  0.51569579  0.56969234  0.76343449    -0.43000
H1589       H  0.45504351  0.60864014  0.75663824     0.13100
H1590       H  0.42832731  0.49077406  0.73206993     0.09600
H1591       H  0.47811072  0.48828265  0.77810335     0.10700
H1592       H  0.52890030  0.45933187  0.71253613     0.16500
C1593       C  0.25562789  0.76744331  0.77370968    -0.01700
C1594       C  0.23560583  0.75535651  0.75988627     0.06900
C1595       C  0.23977284  0.72403231  0.74872643    -0.07700
C1596       C  0.26362029  0.70521218  0.75082522     0.04300
C1597       C  0.28399263  0.71774671  0.76437767    -0.14900
C1598       C  0.27921579  0.74858658  0.77600370    -0.08200
C1599       C  0.21175966  0.77719891  0.75517759     0.05300
C1600       C  0.20967416  0.79270459  0.73499912    -0.09400
C1601       C  0.18985352  0.81728416  0.73055762     0.00300
C1602       C  0.17134444  0.82700910  0.74657105     0.00100
C1603       C  0.17251277  0.80976000  0.76640602    -0.12900
C1604       C  0.19247100  0.78515439  0.77079100     0.00600
C1605       C  0.18922055  0.83203227  0.70935186     0.39900
C1606       C  0.19300421  0.76867575  0.79150161     0.36500
C1607       C  0.25326430  0.80049217  0.78458421     0.36200
C1608       C  0.26715061  0.67451062  0.73782687     0.37000
N1609       N  0.18891174  0.84378115  0.69233838    -0.43800
N1610       N  0.19345683  0.75542878  0.80809504    -0.44200
N1611       N  0.26992382  0.64997229  0.72732118    -0.41600
N1612       N  0.25142751  0.82705058  0.79320668    -0.43000
H1613       H  0.29443977  0.75889868  0.78645220     0.13100
H1614       H  0.22465086  0.71484745  0.73780030     0.09600
H1615       H  0.22422742  0.78644975  0.72283549     0.10700
H1616       H  0.15842663  0.81642019  0.77882954     0.16500
C1617       C  0.37385667  0.93050252  0.70776201    -0.01700
C1618       C  0.39240915  0.90607080  0.71542001     0.06900
C1619       C  0.41577620  0.91804665  0.72502409    -0.07700
C1620       C  0.41944583  0.95353047  0.72924658     0.04300
C1621       C  0.39920505  0.97764482  0.72411646    -0.14900
C1622       C  0.37728594  0.96601573  0.71222768    -0.08200
C1623       C  0.38626062  0.86827012  0.71669324     0.05300
C1624       C  0.40303851  0.84406703  0.70671252    -0.09400
C1625       C  0.40065758  0.80826242  0.71092807     0.00300
C1626       C  0.38115950  0.79631059  0.72544771     0.00100
C1627       C  0.36344558  0.82048828  0.73436434    -0.12900
C1628       C  0.36599800  0.85611257  0.73034999     0.00600
C1629       C  0.41991090  0.78494012  0.70161923     0.39900
C1630       C  0.34909894  0.87981421  0.74201936     0.36500
C1631       C  0.35058907  0.91942018  0.69621619     0.36200
C1632       C  0.44392486  0.96431138  0.73921663     0.37000
N1633       N  0.43538376  0.76625785  0.69420379    -0.43800
N1634       N  0.33562490  0.89878878  0.75142119    -0.44200
N1635       N  0.46361844  0.97288382  0.74708500    -0.41600
N1636       N  0.33198472  0.91038450  0.68695641    -0.43000
H1637       H  0.36191556  0.98427326  0.70764386     0.13100
H1638       H  0.43049022  0.89940883  0.73040279     0.09600
H1639       H  0.41884794  0.85335456  0.69643667     0.10700
H1640       H  0.34842422  0.81170482  0.74554937     0.16500
C1641       C  0.41625929  0.67050337  0.10850162    -0.01700
C1642       C  0.43818165  0.65114298  0.11572739     0.06900
C1643       C  0.45591725  0.63733764  0.10065356    -0.07700
C1644       C  0.45177501  0.64199762  0.07858607     0.04300
C1645       C  0.42904174  0.66011755  0.07122596    -0.14900
C1646       C  0.41196265  0.67487677  0.08663213    -0.08200
C1647       C  0.44101672  0.64257697  0.13881995     0.05300
C1648       C  0.43463179  0.60880998  0.14558964    -0.09400
C1649       C  0.43088859  0.60136329  0.16728549     0.00300
C1650       C  0.43310168  0.62824151  0.18271096     0.00100
C1651       C  0.44214960  0.66117291  0.17606472    -0.12900
C1652       C  0.44619596  0.66841961  0.15430316     0.00600
C1653       C  0.42430876  0.56600216  0.17322477     0.39900
C1654       C  0.45475217  0.70284116  0.14807081     0.36500
C1655       C  0.39700416  0.68467314  0.12322734     0.36200
C1656       C  0.47121217  0.62790709  0.06406561     0.37000
N1657       N  0.41913025  0.53767241  0.17801999    -0.43800
N1658       N  0.46175753  0.73034319  0.14299686    -0.44200
N1659       N  0.48695616  0.61678903  0.05248081    -0.41600
N1660       N  0.38159177  0.69604568  0.13500741    -0.43000
H1661       H  0.39446350  0.68912546  0.08169899     0.13100
H1662       H  0.47287073  0.62250436  0.10615642     0.09600
H1663       H  0.43118545  0.58862114  0.13379351     0.10700
H1664       H  0.44449239  0.68188581  0.18768130     0.16500
C1665       C  0.34538319  0.51802180  0.00294527    -0.01700
C1666       C  0.32091126  0.51964024  0.01378876     0.06900
C1667       C  0.31541031  0.54872351  0.02653587    -0.07700
C1668       C  0.33284144  0.57715036  0.02735130     0.04300
C1669       C  0.35652243  0.57697896  0.01503256    -0.14900
C1670       C  0.36297694  0.54639056  0.00374364    -0.08200
C1671       C  0.29901758  0.49447598  0.00956749     0.05300
C1672       C  0.28919722  0.47309068  0.02602719    -0.09400
C1673       C  0.26542463  0.45423146  0.02345780     0.00300
C1674       C  0.25064156  0.45779022  0.00439926     0.00100
C1675       C  0.26175780  0.47705441  0.98748160    -0.12900
C1676       C  0.28555458  0.49521957  0.98988300     0.00600
C1677       C  0.25615756  0.43286160  0.04089646     0.39900
C1678       C  0.29472022  0.51656010  0.97235688     0.36500
C1679       C  0.35237374  0.48798409  0.99028794     0.36200
C1680       C  0.32554656  0.60607328  0.04089730     0.37000
N1681       N  0.24889008  0.41537732  0.05477793    -0.43800
N1682       N  0.30216271  0.53358155  0.95832496    -0.44200
N1683       N  0.31958569  0.62913538  0.05179348    -0.41600
N1684       N  0.35792339  0.46390276  0.98011253    -0.43000
H1685       H  0.38127874  0.54511510  0.99471400     0.13100
H1686       H  0.29673277  0.54995336  0.03509888     0.09600
H1687       H  0.29962984  0.47211079  0.04113938     0.10700
H1688       H  0.25110107  0.47941682  0.97251828     0.16500
C1689       C  0.25133356  0.79011869  0.97141258    -0.01700
C1690       C  0.25081729  0.76137491  0.95738594     0.06900
C1691       C  0.22641944  0.74880211  0.95002446    -0.07700
C1692       C  0.20255546  0.76364059  0.95705822     0.04300
C1693       C  0.20302770  0.79171656  0.97184187    -0.14900
C1694       C  0.22771452  0.80530226  0.97809957    -0.08200
C1695       C  0.27530211  0.74114809  0.95357160     0.05300
C1696       C  0.27765065  0.70889640  0.96388349    -0.09400
C1697       C  0.30262665  0.69554740  0.96886282     0.00300
C1698       C  0.32549669  0.71514815  0.96381950     0.00100
C1699       C  0.32311156  0.74410346  0.95022290    -0.12900
C1700       C  0.29806924  0.75699426  0.94485229     0.00600
C1701       C  0.30423114  0.66264994  0.98001796     0.39900
C1702       C  0.29613617  0.78842877  0.93227633     0.36500
C1703       C  0.27571439  0.80252208  0.98087317     0.36200
C1704       C  0.17817506  0.74837846  0.94944267     0.37000
N1705       N  0.30558545  0.63617990  0.98880731    -0.43800
N1706       N  0.29448878  0.81361341  0.92220164    -0.44200
N1707       N  0.15870446  0.73598734  0.94330679    -0.41600
N1708       N  0.29522785  0.81225774  0.98851935    -0.43000
H1709       H  0.22876824  0.82676415  0.98932742     0.13100
H1710       H  0.22603001  0.72638458  0.93948089     0.09600
H1711       H  0.26007587  0.69586858  0.96989067     0.10700
H1712       H  0.34060750  0.75855769  0.94543333     0.16500
C1713       C  0.36997962  0.65200334  0.86283119    -0.01700
C1714       C  0.38607907  0.62260399  0.86648923     0.06900
C1715       C  0.39096648  0.59948214  0.84955198    -0.07700
C1716       C  0.38130015  0.60649626  0.82885604     0.04300
C1717       C  0.36656086  0.63727555  0.82492021    -0.14900
C1718       C  0.36037557  0.65898165  0.84232581    -0.08200
C1719       C  0.39983991  0.61851395  0.88741655     0.05300
C1720       C  0.38692281  0.60143416  0.90430434    -0.09400
C1721       C  0.39541726  0.60597750  0.92552894     0.00300
C1722       C  0.41699651  0.62827852  0.93006477     0.00100
C1723       C  0.43132070  0.64260773  0.91293275    -0.12900
C1724       C  0.42307025  0.63769230  0.89177387     0.00600
C1725       C  0.37990466  0.59058493  0.94243163     0.39900
C1726       C  0.43740535  0.65507882  0.87488405     0.36500
C1727       C  0.36440465  0.67661375  0.87970773     0.36200
C1728       C  0.38857481  0.58318024  0.81174804     0.37000
N1729       N  0.36730119  0.57812335  0.95584831    -0.43800
N1730       N  0.44887698  0.66895022  0.86131747    -0.44200
N1731       N  0.39441813  0.56443885  0.79805769    -0.41600
N1732       N  0.36010134  0.69631005  0.89326108    -0.43000
H1733       H  0.34906482  0.68262280  0.83969225     0.13100
H1734       H  0.40336278  0.57684996  0.85227551     0.09600
H1735       H  0.36900877  0.58674511  0.90108175     0.10700
H1736       H  0.44780512  0.65995911  0.91619546     0.16500
C1737       C  0.53437055  0.73059104  0.01003547    -0.01700
C1738       C  0.54347918  0.75221483  0.99328998     0.06900
C1739       C  0.53017806  0.75146681  0.97367396    -0.07700
C1740       C  0.50694486  0.73188147  0.97108510     0.04300
C1741       C  0.49666763  0.71213186  0.98832362    -0.14900
C1742       C  0.51125230  0.71054854  0.00739231    -0.08200
C1743       C  0.56449836  0.77909047  0.99655449     0.05300
C1744       C  0.58893414  0.77628632  0.98594798    -0.09400
C1745       C  0.60817032  0.80284795  0.98739320     0.00300
C1746       C  0.60288304  0.83348842  0.99938282     0.00100
C1747       C  0.57832859  0.83567198  0.01013472    -0.12900
C1748       C  0.55937373  0.80910978  0.00880294     0.00600
C1749       C  0.63291122  0.79776206  0.97626607     0.39900
C1750       C  0.53429705  0.81385817  0.01957091     0.36500
C1751       C  0.54773532  0.72988158  0.03038285     0.36200
C1752       C  0.49357322  0.73336230  0.95071833     0.37000
N1753       N  0.65275345  0.79346990  0.96737128    -0.43800
N1754       N  0.51421480  0.81755480  0.02820961    -0.44200
N1755       N  0.48281547  0.73461084  0.93442778    -0.41600
N1756       N  0.55839006  0.72940211  0.04672832    -0.43000
H1757       H  0.50364750  0.69554353  0.02073264     0.13100
H1758       H  0.53715680  0.76777945  0.96068848     0.09600
H1759       H  0.59290459  0.75333545  0.97636777     0.10700
H1760       H  0.57355094  0.85853376  0.01953719     0.16500
C1761       C  0.37249312  0.84860100  0.03659257    -0.01700
C1762       C  0.39106904  0.87291657  0.02875497     0.06900
C1763       C  0.41393337  0.86071161  0.01843843    -0.07700
C1764       C  0.41728843  0.82518768  0.01409211     0.04300
C1765       C  0.39720544  0.80114125  0.01980652    -0.14900
C1766       C  0.37557659  0.81308237  0.03197526    -0.08200
C1767       C  0.38593824  0.91110155  0.02883861     0.05300
C1768       C  0.40404723  0.93358938  0.03879662    -0.09400
C1769       C  0.40261721  0.96981505  0.03580261     0.00300
C1770       C  0.38275426  0.98411067  0.02241416     0.00100
C1771       C  0.36367260  0.96153293  0.01365227    -0.12900
C1772       C  0.36520967  0.92547686  0.01656958     0.00600
C1773       C  0.42292831  0.99110542  0.04545978     0.39900
C1774       C  0.34647880  0.90370103  0.00533896     0.36500
C1775       C  0.34982614  0.85963551  0.04893192     0.36200
C1776       C  0.44150645  0.81426514  0.00374906     0.37000
N1777       N  0.43925952  0.00803360  0.05324763    -0.43800
N1778       N  0.33145156  0.88629370  0.99634569    -0.44200
N1779       N  0.46098079  0.80552305  0.99557925    -0.41600
N1780       N  0.33167760  0.86847752  0.05884740    -0.43000
H1781       H  0.36033670  0.79493030  0.03703564     0.13100
H1782       H  0.42868977  0.87920692  0.01290623     0.09600
H1783       H  0.42007587  0.92263811  0.04817307     0.10700
H1784       H  0.34813591  0.97191136  0.00352243     0.16500
C1785       C  0.58562671  0.86463209  0.39289338    -0.01700
C1786       C  0.58908772  0.89863494  0.38485474     0.06900
C1787       C  0.59230983  0.92634090  0.39938910    -0.07700
C1788       C  0.59456120  0.92012538  0.42144165     0.04300
C1789       C  0.59360916  0.88560029  0.42918420    -0.14900
C1790       C  0.58795115  0.85846858  0.41478490    -0.08200
C1791       C  0.59268746  0.90485159  0.36150736     0.05300
C1792       C  0.57267417  0.89537329  0.34700001    -0.09400
C1793       C  0.57646708  0.89876807  0.32486130     0.00300
C1794       C  0.60056640  0.91235321  0.31689731     0.00100
C1795       C  0.62048580  0.92179830  0.33147739    -0.12900
C1796       C  0.61684924  0.91800183  0.35348050     0.00600
C1797       C  0.55495902  0.88949772  0.31078795     0.39900
C1798       C  0.63854398  0.92702136  0.36747008     0.36500
C1799       C  0.58138381  0.83517712  0.37895684     0.36200
C1800       C  0.59963948  0.94921874  0.43545123     0.37000
N1801       N  0.53776187  0.88206844  0.29945670    -0.43800
N1802       N  0.65584190  0.93429121  0.37874006    -0.44200
N1803       N  0.60366851  0.97260012  0.44665722    -0.41600
N1804       N  0.57782014  0.81158159  0.36782022    -0.43000
H1805       H  0.58631967  0.83190815  0.42058905     0.13100
H1806       H  0.59443044  0.95269475  0.39336265     0.09600
H1807       H  0.55402640  0.88529001  0.35301022     0.10700
H1808       H  0.63910536  0.93228151  0.32563682     0.16500
C1809       C  0.69479352  0.00208393  0.48127386    -0.01700
C1810       C  0.71607290  0.00588421  0.49573857     0.06900
C1811       C  0.71684606  0.98440114  0.51380469    -0.07700
C1812       C  0.69774080  0.95846844  0.51722416     0.04300
C1813       C  0.67689584  0.95338545  0.50228513    -0.14900
C1814       C  0.67548377  0.97612615  0.48464438    -0.08200
C1815       C  0.73882420  0.03021244  0.49202191     0.05300
C1816       C  0.74471298  0.05591313  0.50733607    -0.09400
C1817       C  0.76847273  0.07514136  0.50643849     0.00300
C1818       C  0.78697475  0.06876551  0.48991599     0.00100
C1819       C  0.78034035  0.04424813  0.47405823    -0.12900
C1820       C  0.75679820  0.02491339  0.47506033     0.00600
C1821       C  0.77423723  0.09904368  0.52361195     0.39900
C1822       C  0.75263567  0.99784155  0.45940220     0.36500
C1823       C  0.69245732  0.02435657  0.46280339     0.36200
C1824       C  0.70041413  0.93755989  0.53628279     0.37000
N1825       N  0.77885889  0.11809732  0.53743778    -0.43800
N1826       N  0.74932858  0.97614330  0.44685522    -0.44200
N1827       N  0.70278565  0.92084342  0.55154230    -0.41600
N1828       N  0.69064149  0.04211016  0.44794138    -0.43000
H1829       H  0.65968540  0.97304406  0.47307761     0.13100
H1830       H  0.73302373  0.98726248  0.52506905     0.09600
H1831       H  0.73121120  0.05985213  0.52059526     0.10700
H1832       H  0.79425781  0.03892520  0.46126124     0.16500
C1833       C  0.72644680  0.75495464  0.45417651    -0.01700
C1834       C  0.75010372  0.77265322  0.45906556     0.06900
C1835       C  0.74916166  0.80792334  0.46469544    -0.07700
C1836       C  0.72486078  0.82442104  0.46822641     0.04300
C1837       C  0.70099935  0.80513862  0.46632538    -0.14900
C1838       C  0.70204858  0.77129522  0.45776600    -0.08200
C1839       C  0.77500111  0.75351921  0.46313377     0.05300
C1840       C  0.79669645  0.75764806  0.44943280    -0.09400
C1841       C  0.82159742  0.74402721  0.45485174     0.00300
C1842       C  0.82510034  0.72668162  0.47469600     0.00100
C1843       C  0.80270428  0.72091178  0.48763965    -0.12900
C1844       C  0.77795505  0.73422231  0.48210606     0.00600
C1845       C  0.84300868  0.74883641  0.43982636     0.39900
C1846       C  0.75621758  0.72970695  0.49690370     0.36500
C1847       C  0.72685091  0.71916247  0.44712368     0.36200
C1848       C  0.72517292  0.86046182  0.47497152     0.37000
N1849       N  0.86009915  0.75257554  0.42770386    -0.43800
N1850       N  0.73880827  0.72616015  0.50874620    -0.44200
N1851       N  0.72551460  0.88929595  0.48039603    -0.41600
N1852       N  0.72729297  0.69048983  0.44142344    -0.43000
H1853       H  0.68396876  0.75639725  0.45573480     0.13100
H1854       H  0.76744510  0.82176095  0.46804502     0.09600
H1855       H  0.79429814  0.77229871  0.43475726     0.10700
H1856       H  0.80461219  0.70734935  0.50274410     0.16500
C1857       C  0.49725961  0.80749400  0.52506501    -0.01700
C1858       C  0.48353871  0.79071827  0.50829967     0.06900
C1859       C  0.49270815  0.79491878  0.48732911    -0.07700
C1860       C  0.51645146  0.81264334  0.48311209     0.04300
C1861       C  0.53158596  0.82659087  0.50009746    -0.14900
C1862       C  0.52108370  0.82528753  0.52087218    -0.08200
C1863       C  0.46254156  0.76412312  0.51241344     0.05300
C1864       C  0.43646242  0.76939911  0.50526476    -0.09400
C1865       C  0.41734286  0.74265008  0.50661541     0.00300
C1866       C  0.42440386  0.70949234  0.51492519     0.00100
C1867       C  0.45023258  0.70536151  0.52311079    -0.12900
C1868       C  0.46920352  0.73180410  0.52160130     0.00600
C1869       C  0.39083921  0.75015513  0.49931595     0.39900
C1870       C  0.49598923  0.72424522  0.52829479     0.36500
C1871       C  0.48779581  0.80546025  0.54678062     0.36200
C1872       C  0.52509323  0.81569609  0.46120220     0.37000
N1873       N  0.36955302  0.75629939  0.49358244    -0.43800
N1874       N  0.51749552  0.71822727  0.53351369    -0.44200
N1875       N  0.53198004  0.81828521  0.44364618    -0.41600
N1876       N  0.48015969  0.80385676  0.56417837    -0.43000
H1877       H  0.53226220  0.83630351  0.53401859     0.13100
H1878       H  0.48208963  0.78256334  0.47432172     0.09600
H1879       H  0.43117749  0.79428082  0.49824625     0.10700
H1880       H  0.45618213  0.68075398  0.53010945     0.16500
C1881       C  0.62099412  0.60033702  0.54453574    -0.01700
C1882       C  0.64200949  0.62400548  0.54119342     0.06900
C1883       C  0.66766909  0.61092386  0.53824688    -0.07700
C1884       C  0.67203305  0.57506857  0.53576290     0.04300
C1885       C  0.65028788  0.55162866  0.53582466    -0.14900
C1886       C  0.62519440  0.56447315  0.54171005    -0.08200
C1887       C  0.63706514  0.66155920  0.53659223     0.05300
C1888       C  0.64847152  0.68764881  0.54935779    -0.09400
C1889       C  0.64628574  0.72310252  0.54377631     0.00300
C1890       C  0.63264764  0.73290456  0.52491258     0.00100
C1891       C  0.62080506  0.70652146  0.51255931    -0.12900
C1892       C  0.62307585  0.67138672  0.51806360     0.00600
C1893       C  0.65811049  0.74863224  0.55775046     0.39900
C1894       C  0.61218471  0.64571761  0.50363312     0.36500
C1895       C  0.59464209  0.61258784  0.54948221     0.36200
C1896       C  0.69888339  0.56334366  0.53222483     0.37000
N1897       N  0.66756540  0.76907311  0.56899119    -0.43800
N1898       N  0.60348948  0.62509137  0.49212287    -0.44200
N1899       N  0.72037433  0.55387397  0.52939942    -0.41600
N1900       N  0.57356862  0.62255550  0.55345500    -0.43000
H1901       H  0.60837028  0.54693307  0.54250097     0.13100
H1902       H  0.68407178  0.62893180  0.53630371     0.09600
H1903       H  0.65940604  0.68024183  0.56354233     0.10700
H1904       H  0.61053863  0.71311114  0.49791068     0.16500
C1905       C  0.68754238  0.91862583  0.84531630    -0.01700
C1906       C  0.69427327  0.89294242  0.86056061     0.06900
C1907       C  0.70031396  0.85917227  0.85370951    -0.07700
C1908       C  0.69781602  0.84998135  0.83226787     0.04300
C1909       C  0.68918009  0.87497113  0.81720050    -0.14900
C1910       C  0.68525155  0.90952419  0.82372641    -0.08200
C1911       C  0.69089020  0.89881706  0.88376984     0.05300
C1912       C  0.66539786  0.90654649  0.89121400    -0.09400
C1913       C  0.66038812  0.91026253  0.91297155     0.00300
C1914       C  0.68105777  0.90540506  0.92788194     0.00100
C1915       C  0.70650498  0.89676826  0.92053405    -0.12900
C1916       C  0.71161082  0.89374907  0.89858049     0.00600
C1917       C  0.63383273  0.91944264  0.91956603     0.39900
C1918       C  0.73839319  0.88717490  0.89154842     0.36500
C1919       C  0.68195368  0.95407309  0.85158804     0.36200
C1920       C  0.70362570  0.81443011  0.82625386     0.37000
N1921       N  0.61261721  0.92706563  0.92480512    -0.43800
N1922       N  0.75988461  0.88214179  0.88587949    -0.44200
N1923       N  0.70819341  0.78594063  0.82144471    -0.41600
N1924       N  0.67741031  0.98247522  0.85659840    -0.43000
H1925       H  0.67892728  0.92890743  0.81220028     0.13100
H1926       H  0.70549912  0.83937131  0.86534349     0.09600
H1927       H  0.64927833  0.90963759  0.87991967     0.10700
H1928       H  0.72263773  0.89415395  0.93185140     0.16500
C1929       C  0.84639456  0.75604625  0.75244223    -0.01700
C1930       C  0.82252061  0.75485728  0.74075093     0.06900
C1931       C  0.81854101  0.72751023  0.72631452    -0.07700
C1932       C  0.83686936  0.70026407  0.72444576     0.04300
C1933       C  0.85998671  0.69980320  0.73738859    -0.14900
C1934       C  0.86489644  0.72880511  0.75061122    -0.08200
C1935       C  0.79995645  0.77908528  0.74486170     0.05300
C1936       C  0.79077949  0.80108673  0.72849678    -0.09400
C1937       C  0.76657810  0.81912822  0.73045863     0.00300
C1938       C  0.75075168  0.81453838  0.74890994     0.00100
C1939       C  0.76099618  0.79424045  0.76575896    -0.12900
C1940       C  0.78515062  0.77661821  0.76388801     0.00600
C1941       C  0.75795395  0.84056110  0.71287004     0.39900
C1942       C  0.79334847  0.75414645  0.78117814     0.36500
C1943       C  0.85203168  0.78455979  0.76675263     0.36200
C1944       C  0.83102094  0.67312145  0.70918078     0.37000
N1945       N  0.75116305  0.85791151  0.69878963    -0.43800
N1946       N  0.79993342  0.73618638  0.79503501    -0.44200
N1947       N  0.82620928  0.65146766  0.69692159    -0.41600
N1948       N  0.85660615  0.80740753  0.77822761    -0.43000
H1949       H  0.88267259  0.72956629  0.76030435     0.13100
H1950       H  0.80038087  0.72668080  0.71706491     0.09600
H1951       H  0.80208848  0.80312477  0.71382280     0.10700
H1952       H  0.74954431  0.79090350  0.78028211     0.16500
C1953       C  0.65679551  0.59210242  0.70188628    -0.01700
C1954       C  0.63610796  0.61598253  0.70571791     0.06900
C1955       C  0.61076127  0.60326887  0.71047427    -0.07700
C1956       C  0.60674655  0.56776153  0.71456235     0.04300
C1957       C  0.62861445  0.54454310  0.71433988    -0.14900
C1958       C  0.65300014  0.55667527  0.70633997    -0.08200
C1959       C  0.64175306  0.65328637  0.71011813     0.05300
C1960       C  0.63014318  0.67968541  0.69774760    -0.09400
C1961       C  0.63291198  0.71496638  0.70349122     0.00300
C1962       C  0.64738986  0.72411267  0.72206009     0.00100
C1963       C  0.65953704  0.69742758  0.73391798    -0.12900
C1964       C  0.65659036  0.66250417  0.72832240     0.00600
C1965       C  0.62078847  0.74099934  0.69003275     0.39900
C1966       C  0.66744337  0.63638740  0.74246747     0.36500
C1967       C  0.68270062  0.60391802  0.69526227     0.36200
C1968       C  0.58026024  0.55635261  0.71990096     0.37000
N1969       N  0.61110307  0.76183176  0.67919497    -0.43800
N1970       N  0.67597048  0.61529674  0.75373208    -0.44200
N1971       N  0.55903070  0.54719169  0.72410641    -0.41600
N1972       N  0.70344590  0.61345785  0.68996531    -0.43000
H1973       H  0.66978926  0.53915843  0.70523783     0.13100
H1974       H  0.59456883  0.62145644  0.71279492     0.09600
H1975       H  0.61853873  0.67266171  0.68384388     0.10700
H1976       H  0.67039590  0.70359922  0.74835629     0.16500
C1977       C  0.48327703  0.75731987  0.80484357    -0.01700
C1978       C  0.50616070  0.74958373  0.79285710     0.06900
C1979       C  0.50433832  0.72633233  0.77569428    -0.07700
C1980       C  0.48004485  0.71270969  0.76930518     0.04300
C1981       C  0.45653660  0.72297145  0.77996971    -0.14900
C1982       C  0.45864844  0.74413949  0.79827858    -0.08200
C1983       C  0.53193860  0.76746496  0.79580847     0.05300
C1984       C  0.55460164  0.74666730  0.79818755    -0.09400
C1985       C  0.57958756  0.75902313  0.79213088     0.00300
C1986       C  0.58221230  0.79338364  0.78416796     0.00100
C1987       C  0.56001334  0.81551434  0.78458001    -0.12900
C1988       C  0.53494634  0.80280203  0.79006435     0.00600
C1989       C  0.60118877  0.73435278  0.79168223     0.39900
C1990       C  0.51237636  0.82544752  0.78716091     0.36500
C1991       C  0.48456603  0.77889261  0.82367938     0.36200
C1992       C  0.48017165  0.68865942  0.75154427     0.37000
N1993       N  0.61834692  0.71437036  0.79116242    -0.43800
N1994       N  0.49435147  0.84367943  0.78481406    -0.44200
N1995       N  0.48052942  0.66946623  0.73729698    -0.41600
N1996       N  0.48552292  0.79608063  0.83883631    -0.43000
H1997       H  0.44097473  0.75156877  0.80700747     0.13100
H1998       H  0.52198950  0.71983481  0.76661711     0.09600
H1999       H  0.55230267  0.71944561  0.80249741     0.10700
H2000       H  0.56182185  0.84213448  0.77892832     0.16500
C2001       C  0.65626678  0.86007226  0.64065329    -0.01700
C2002       C  0.64614297  0.89280887  0.63440609     0.06900
C2003       C  0.64645953  0.92044763  0.64910059    -0.07700
C2004       C  0.65465379  0.91500310  0.67027543     0.04300
C2005       C  0.66237849  0.88129973  0.67694063    -0.14900
C2006       C  0.66414119  0.85459168  0.66173827    -0.08200
C2007       C  0.63408260  0.89750802  0.61293635     0.05300
C2008       C  0.61251633  0.87625673  0.60719678    -0.09400
C2009       C  0.60446613  0.87357821  0.58588182     0.00300
C2010       C  0.61745390  0.89333672  0.57010462     0.00100
C2011       C  0.63686483  0.91757612  0.57620031    -0.12900
C2012       C  0.64550096  0.91952574  0.59742664     0.00600
C2013       C  0.58417442  0.84866620  0.58028241     0.39900
C2014       C  0.66788023  0.94149683  0.60240044     0.36500
C2015       C  0.65784635  0.83122279  0.62590415     0.36200
C2016       C  0.65275735  0.94357538  0.68519219     0.37000
N2017       N  0.56790500  0.82873031  0.57576313    -0.43800
N2018       N  0.68589537  0.95900462  0.60635206    -0.44200
N2019       N  0.65123278  0.96652869  0.69711231    -0.41600
N2020       N  0.65902566  0.80805523  0.61412551    -0.43000
H2021       H  0.67018039  0.82868619  0.66669101     0.13100
H2022       H  0.63907028  0.94580318  0.64431655     0.09600
H2023       H  0.60329212  0.85977085  0.61915291     0.10700
H2024       H  0.64718600  0.93241964  0.56401627     0.16500
C2025       C  0.58686210  0.98835035  0.77087204    -0.01700
C2026       C  0.56732601  0.99586675  0.75536245     0.06900
C2027       C  0.56880918  0.97915110  0.73548920    -0.07700
C2028       C  0.58814815  0.95385444  0.73133340     0.04300
C2029       C  0.60670909  0.94458549  0.74731144    -0.14900
C2030       C  0.60629076  0.96292189  0.76675492    -0.08200
C2031       C  0.54418012  0.01925415  0.75960844     0.05300
C2032       C  0.53937843  0.04769557  0.74597923    -0.09400
C2033       C  0.51576309  0.06708794  0.74732019     0.00300
C2034       C  0.49636904  0.05841111  0.76280123     0.00100
C2035       C  0.50185721  0.03080483  0.77697827    -0.12900
C2036       C  0.52508575  0.01101311  0.77529557     0.00600
C2037       C  0.51127235  0.09385348  0.73154817     0.39900
C2038       C  0.52773756  0.98064445  0.78875704     0.36500
C2039       C  0.58723126  0.00611474  0.79117954     0.36200
C2040       C  0.58843643  0.93797920  0.71042555     0.37000
N2041       N  0.50773075  0.11513134  0.71877355    -0.43800
N2042       N  0.52978837  0.95628476  0.79952416    -0.44200
N2043       N  0.58861371  0.92537629  0.69364248    -0.41600
N2044       N  0.58746982  0.02021038  0.80750858    -0.43000
H2045       H  0.62053094  0.95647097  0.77909208     0.13100
H2046       H  0.55419757  0.98511048  0.72333526     0.09600
H2047       H  0.55370386  0.05385829  0.73362228     0.10700
H2048       H  0.48730774  0.02345792  0.78891483     0.16500
C2049       C  0.06718647  0.40515885  0.40648494    -0.01700
C2050       C  0.08823763  0.40340979  0.39166358     0.06900
C2051       C  0.11440788  0.40294568  0.39910778    -0.07700
C2052       C  0.11982196  0.40109442  0.42088592     0.04300
C2053       C  0.09876520  0.39974739  0.43569841    -0.14900
C2054       C  0.07260130  0.40328284  0.42842499    -0.08200
C2055       C  0.08404501  0.40288241  0.36825939     0.05300
C2056       C  0.07349845  0.43251289  0.35845529    -0.09400
C2057       C  0.07496412  0.43657326  0.33634402     0.00300
C2058       C  0.08740759  0.41077010  0.32370331     0.00100
C2059       C  0.09560423  0.37959064  0.33324376    -0.12900
C2060       C  0.09397409  0.37546435  0.35544906     0.00600
C2061       C  0.06450208  0.46817513  0.32706015     0.39900
C2062       C  0.10355572  0.34353512  0.36488536     0.36500
C2063       C  0.03995409  0.40682904  0.39955428     0.36200
C2064       C  0.14716916  0.39942187  0.42765658     0.37000
N2065       N  0.05611360  0.49350892  0.31967215    -0.43800
N2066       N  0.11116887  0.31796567  0.37251314    -0.44200
N2067       N  0.16903791  0.39801032  0.43313204    -0.41600
N2068       N  0.01811171  0.40829037  0.39402184    -0.43000
H2069       H  0.05633405  0.40205482  0.43973792     0.13100
H2070       H  0.13068567  0.40310773  0.38777420     0.09600
H2071       H  0.06559101  0.45345778  0.36818606     0.10700
H2072       H  0.10485898  0.35953039  0.32359332     0.16500
C2073       C  0.00171955  0.29956782  0.52784674    -0.01700
C2074       C  0.98778998  0.28458176  0.51061084     0.06900
C2075       C  0.99571890  0.29239648  0.48971647    -0.07700
C2076       C  0.01814159  0.31300513  0.48577569     0.04300
C2077       C  0.03311009  0.32652290  0.50301262    -0.14900
C2078       C  0.02404666  0.32058965  0.52395268    -0.08200
C2079       C  0.96720272  0.25723302  0.51378451     0.05300
C2080       C  0.94027127  0.26510084  0.51088160    -0.09400
C2081       C  0.92078895  0.23879470  0.51174849     0.00300
C2082       C  0.92826304  0.20361213  0.51520353     0.00100
C2083       C  0.95531797  0.19638133  0.51869595    -0.12900
C2084       C  0.97459288  0.22255247  0.51797880     0.00600
C2085       C  0.89341487  0.24890244  0.50940937     0.39900
C2086       C  0.00205338  0.21291910  0.52080417     0.36500
C2087       C  0.99406430  0.29253062  0.54963117     0.36200
C2088       C  0.02556860  0.31934853  0.46384086     0.37000
N2089       N  0.87146210  0.25711641  0.50766186    -0.43800
N2090       N  0.02403565  0.20516848  0.52304605    -0.44200
N2091       N  0.03152266  0.32437218  0.44626084    -0.41600
N2092       N  0.98792717  0.28689177  0.56709880    -0.43000
H2093       H  0.03530170  0.33063810  0.53734697     0.13100
H2094       H  0.98502851  0.28100953  0.47641827     0.09600
H2095       H  0.93449962  0.29182365  0.50773647     0.10700
H2096       H  0.96172547  0.16990151  0.52153797     0.16500
C2097       C  0.11180405  0.17930214  0.51852861    -0.01700
C2098       C  0.12825608  0.16671295  0.53495106     0.06900
C2099       C  0.14189614  0.19036439  0.54798559    -0.07700
C2100       C  0.14069042  0.22625969  0.54399745     0.04300
C2101       C  0.12589614  0.23875510  0.52638388    -0.14900
C2102       C  0.11055553  0.21494534  0.51456032    -0.08200
C2103       C  0.13492343  0.12930697  0.53602046     0.05300
C2104       C  0.16011229  0.11924811  0.52898912    -0.09400
C2105       C  0.16569901  0.08442738  0.52436464     0.00300
C2106       C  0.14563198  0.05883801  0.52683038     0.00100
C2107       C  0.12122830  0.06877815  0.53594547    -0.12900
C2108       C  0.11574484  0.10370978  0.54047394     0.00600
C2109       C  0.19182746  0.07640041  0.51628824     0.39900
C2110       C  0.08986529  0.11296248  0.54853531     0.36500
C2111       C  0.09783941  0.15608880  0.50424448     0.36200
C2112       C  0.15520317  0.24925803  0.55798975     0.37000
N2113       N  0.21276738  0.07020524  0.50976130    -0.43800
N2114       N  0.06909171  0.12040344  0.55490191    -0.44200
N2115       N  0.16677400  0.26762545  0.56929087    -0.41600
N2116       N  0.08664622  0.13758971  0.49277702    -0.43000
H2117       H  0.09869091  0.22378644  0.50119024     0.13100
H2118       H  0.15441944  0.18059515  0.56071058     0.09600
H2119       H  0.17495985  0.13903876  0.52576168     0.10700
H2120       H  0.10570728  0.04963152  0.53836422     0.16500
C2121       C  0.19518155  0.50251811  0.48705830    -0.01700
C2122       C  0.21597154  0.50639371  0.50192620     0.06900
C2123       C  0.21498774  0.48754906  0.52107367    -0.07700
C2124       C  0.19467960  0.46353113  0.52502991     0.04300
C2125       C  0.17485923  0.45752927  0.50942332    -0.14900
C2126       C  0.17494773  0.47814482  0.49083608    -0.08200
C2127       C  0.23971241  0.52839834  0.49760363     0.05300
C2128       C  0.24594109  0.55578155  0.51162177    -0.09400
C2129       C  0.26984035  0.57430587  0.50969457     0.00300
C2130       C  0.28803450  0.56554065  0.49338453     0.00100
C2131       C  0.28135334  0.53870700  0.47904223    -0.12900
C2132       C  0.25765892  0.52004288  0.48109375     0.00600
C2133       C  0.27599346  0.60022234  0.52563783     0.39900
C2134       C  0.25308563  0.49098780  0.46689112     0.36500
C2135       C  0.19431419  0.52314437  0.46779827     0.36200
C2136       C  0.19473514  0.44568402  0.54534401     0.37000
N2137       N  0.28094050  0.62086577  0.53849831    -0.43800
N2138       N  0.24945559  0.46774598  0.45548804    -0.44200
N2139       N  0.19483328  0.43149358  0.56164857    -0.41600
N2140       N  0.19367691  0.53972447  0.45237490    -0.43000
H2141       H  0.15973231  0.47438181  0.47884234     0.13100
H2142       H  0.23060715  0.49096048  0.53278003     0.09600
H2143       H  0.23245207  0.56190035  0.52457592     0.10700
H2144       H  0.29517101  0.53142394  0.46653783     0.16500
C2145       C  0.17435494  0.34717257  0.86093438    -0.01700
C2146       C  0.18620661  0.37815109  0.86805622     0.06900
C2147       C  0.19625149  0.40189649  0.85302317    -0.07700
C2148       C  0.19381001  0.39564749  0.83099844     0.04300
C2149       C  0.18051997  0.36532757  0.82371910    -0.14900
C2150       C  0.17152936  0.34109604  0.83909481    -0.08200
C2151       C  0.18496126  0.38796859  0.89092891     0.05300
C2152       C  0.20061988  0.37045046  0.90603258    -0.09400
C2153       C  0.19816106  0.37772679  0.92794707     0.00300
C2154       C  0.17962965  0.40296173  0.93497517     0.00100
C2155       C  0.16385123  0.41996108  0.91962250    -0.12900
C2156       C  0.16637404  0.41274069  0.89790783     0.00600
C2157       C  0.21525831  0.35948551  0.94263573     0.39900
C2158       C  0.14905536  0.43038782  0.88307205     0.36500
C2159       C  0.16386690  0.32186884  0.87579751     0.36200
C2160       C  0.20497753  0.42094541  0.81650263     0.37000
N2161       N  0.22897870  0.34481371  0.95438672    -0.43800
N2162       N  0.13519219  0.44443196  0.87114894    -0.44200
N2163       N  0.21415086  0.44123783  0.80498902    -0.41600
N2164       N  0.15554635  0.30162411  0.88774907    -0.43000
H2165       H  0.16179477  0.31722946  0.83417288     0.13100
H2166       H  0.20545949  0.42579001  0.85855536     0.09600
H2167       H  0.21468228  0.35096379  0.90066295     0.10700
H2168       H  0.14924484  0.43906386  0.92454909     0.16500
C2169       C  0.06361752  0.47229444  0.73993806    -0.01700
C2170       C  0.06606714  0.49712563  0.75638161     0.06900
C2171       C  0.08854698  0.49599696  0.76955266    -0.07700
C2172       C  0.10811952  0.47012984  0.76688728     0.04300
C2173       C  0.10508887  0.44399095  0.75099603    -0.14900
C2174       C  0.08287042  0.44626440  0.73738926    -0.08200
C2175       C  0.04394526  0.52184473  0.76119418     0.05300
C2176       C  0.02702698  0.51423001  0.77831259    -0.09400
C2177       C  0.00339249  0.53282925  0.78143514     0.00300
C2178       C  0.99598571  0.55973426  0.76704995     0.00100
C2179       C  0.01404991  0.56899337  0.75083789    -0.12900
C2180       C  0.03780728  0.55036798  0.74785567     0.00600
C2181       C  0.98709308  0.52328383  0.79947781     0.39900
C2182       C  0.05538526  0.56050589  0.73076629     0.36500
C2183       C  0.04077904  0.47206351  0.72605399     0.36200
C2184       C  0.13062991  0.47085696  0.78107350     0.37000
N2185       N  0.97410545  0.51554425  0.81396079    -0.43800
N2186       N  0.06955016  0.56878295  0.71713859    -0.44200
N2187       N  0.14870095  0.47166865  0.79242529    -0.41600
N2188       N  0.02243954  0.47201013  0.71497881    -0.43000
H2189       H  0.08007623  0.42713122  0.72486113     0.13100
H2190       H  0.09056221  0.51505312  0.78222991     0.09600
H2191       H  0.03181374  0.49267575  0.78883154     0.10700
H2192       H  0.00909417  0.58977354  0.73981531     0.16500
C2193       C  0.28136469  0.26968562  0.76635512    -0.01700
C2194       C  0.29695652  0.27555532  0.74797436     0.06900
C2195       C  0.28754037  0.29896101  0.73242794    -0.07700
C2196       C  0.26286996  0.31577025  0.73476367     0.04300
C2197       C  0.24709910  0.30944798  0.75309012    -0.14900
C2198       C  0.25709838  0.28686387  0.76886844    -0.08200
C2199       C  0.32103353  0.25387146  0.74361285     0.05300
C2200       C  0.32078940  0.23150782  0.72590684    -0.09400
C2201       C  0.34010137  0.20556152  0.72341501     0.00300
C2202       C  0.35998123  0.20098365  0.73913418     0.00100
C2203       C  0.36174059  0.22561321  0.75570236    -0.12900
C2204       C  0.34270379  0.25212915  0.75788077     0.00600
C2205       C  0.33901574  0.18408472  0.70450164     0.39900
C2206       C  0.34552139  0.27684248  0.77510259     0.36500
C2207       C  0.28874518  0.24400066  0.78213761     0.29800
C2208       C  0.25349581  0.33723191  0.71741667     0.37000
N2209       N  0.33826255  0.16705551  0.68926804    -0.43800
N2210       N  0.34783202  0.29665294  0.78890266    -0.44200
N2211       N  0.24590856  0.35426303  0.70345170    -0.41600
N2212       N  0.29470648  0.22335699  0.79471622    -0.43000
H2213       H  0.24538710  0.28142898  0.78301052     0.13100
H2214       H  0.29907324  0.30310607  0.71803029     0.09600
H2215       H  0.30474935  0.23328737  0.71444797     0.10700
H2216       H  0.37730547  0.22328452  0.76753804     0.16500
C2217       C  0.16120630  0.16335427  0.72433266    -0.01700
C2218       C  0.14186859  0.15268958  0.70942998     0.06900
C2219       C  0.12595978  0.17817336  0.69968321    -0.07700
C2220       C  0.12817526  0.21355195  0.70529824     0.04300
C2221       C  0.14668719  0.22400648  0.72107691    -0.14900
C2222       C  0.16374212  0.19852214  0.72962633    -0.08200
C2223       C  0.13545507  0.11503408  0.70658835     0.05300
C2224       C  0.11030791  0.10332536  0.71290284    -0.09400
C2225       C  0.10539698  0.06782526  0.71626253     0.00300
C2226       C  0.12623008  0.04336345  0.71390348     0.00100
C2227       C  0.15020670  0.05471551  0.70473520    -0.12900
C2228       C  0.15479849  0.09019166  0.70081321     0.00600
C2229       C  0.07904140  0.05754450  0.72276324     0.39900
C2230       C  0.17995773  0.10065957  0.69187189     0.36500
C2231       C  0.17717023  0.13856379  0.73600709     0.36200
C2232       C  0.11064512  0.23804075  0.69500657     0.37000
N2233       N  0.05789388  0.04930475  0.72786140    -0.43800
N2234       N  0.20014926  0.10902099  0.68474731    -0.44200
N2235       N  0.09654708  0.25754390  0.68667950    -0.41600
N2236       N  0.18999829  0.11882532  0.74539293    -0.43000
H2237       H  0.17824863  0.20558588  0.74163022     0.13100
H2238       H  0.11101908  0.17017895  0.68824967     0.09600
H2239       H  0.09492982  0.12214034  0.71657302     0.10700
H2240       H  0.16611846  0.03628332  0.70196746     0.16500
C2241       C  0.16184797  0.36400010  0.64531858    -0.01700
C2242       C  0.14794848  0.39461272  0.63961381     0.06900
C2243       C  0.14559428  0.42153210  0.65470669    -0.07700
C2244       C  0.15452058  0.41688552  0.67574939     0.04300
C2245       C  0.16550485  0.38460164  0.68196139    -0.14900
C2246       C  0.17035933  0.35925400  0.66633090    -0.08200
C2247       C  0.13419118  0.39726001  0.61860922     0.05300
C2248       C  0.11634427  0.37072684  0.61282175    -0.09400
C2249       C  0.10727839  0.36767941  0.59181711     0.00300
C2250       C  0.11540525  0.39209058  0.57636262     0.00100
C2251       C  0.13032494  0.42115944  0.58274619    -0.12900
C2252       C  0.13991804  0.42383600  0.60370304     0.00600
C2253       C  0.09095171  0.33819254  0.58610400     0.39900
C2254       C  0.15734779  0.45240617  0.60892319     0.36500
C2255       C  0.16632057  0.33613093  0.63022707     0.36200
C2256       C  0.14976047  0.44422166  0.69111394     0.37000
N2257       N  0.07783321  0.31464702  0.58145105    -0.43800
N2258       N  0.17122064  0.47542792  0.61310748    -0.44200
N2259       N  0.14604627  0.46621580  0.70339359    -0.41600
N2260       N  0.16974126  0.31367434  0.61820908    -0.43000
H2261       H  0.17887924  0.33442323  0.67097541     0.13100
H2262       H  0.13527912  0.44531397  0.65045599     0.09600
H2263       H  0.11088887  0.35099557  0.62442652     0.10700
H2264       H  0.13671132  0.43995981  0.57086890     0.16500
C2265       C  0.45433481  0.11929374  0.59665405    -0.01700
C2266       C  0.44694568  0.14349270  0.61263686     0.06900
C2267       C  0.43784884  0.17642249  0.60632931    -0.07700
C2268       C  0.43361963  0.18427664  0.58474687     0.04300
C2269       C  0.43830709  0.15872627  0.56882315    -0.14900
C2270       C  0.44991120  0.12699072  0.57497781    -0.08200
C2271       C  0.44511160  0.13390903  0.63577411     0.05300
C2272       C  0.45842544  0.15383788  0.65130495    -0.09400
C2273       C  0.45386988  0.14861490  0.67332000     0.00300
C2274       C  0.43554002  0.12294391  0.68020649     0.00100
C2275       C  0.42333827  0.10207404  0.66446053    -0.12900
C2276       C  0.42748055  0.10770250  0.64266704     0.00600
C2277       C  0.46742921  0.17100383  0.68823653     0.39900
C2278       C  0.41160851  0.08798173  0.62774055     0.36500
C2279       C  0.46557128  0.08591455  0.60218414     0.36200
C2280       C  0.42391959  0.21865114  0.57948606     0.37000
N2281       N  0.47840239  0.18902597  0.70011695    -0.43800
N2282       N  0.39884131  0.07222426  0.61581660    -0.44200
N2283       N  0.41617269  0.24620612  0.57531998    -0.41600
N2284       N  0.47446631  0.05909556  0.60663702    -0.43000
H2285       H  0.45410070  0.10735296  0.56299788     0.13100
H2286       H  0.43264458  0.19549460  0.61840528     0.09600
H2287       H  0.47179905  0.17432801  0.64617617     0.10700
H2288       H  0.40931241  0.08201373  0.66906182     0.16500
C2289       C  0.31738802  0.06041809  0.52654751    -0.01700
C2290       C  0.32058574  0.03011342  0.51406695     0.06900
C2291       C  0.34349912  0.02687878  0.50142776    -0.07700
C2292       C  0.36250559  0.05365624  0.50041017     0.04300
C2293       C  0.35878660  0.08472501  0.51227038    -0.14900
C2294       C  0.33638711  0.08702170  0.52568046    -0.08200
C2295       C  0.29819256  0.00517785  0.51079714     0.05300
C2296       C  0.28689615  0.00380686  0.49043647    -0.09400
C2297       C  0.26340857  0.98557465  0.48670777     0.00300
C2298       C  0.25025765  0.96819227  0.50369387     0.00100
C2299       C  0.26269424  0.96713088  0.52377992    -0.12900
C2300       C  0.28656024  0.98537145  0.52740924     0.00600
C2301       C  0.25300129  0.98602694  0.46521715     0.39900
C2302       C  0.29858021  0.98379307  0.54827720     0.36500
C2303       C  0.29385940  0.06609616  0.53922558     0.36200
C2304       C  0.38464945  0.04913471  0.48607635     0.37000
N2305       N  0.24470735  0.98665470  0.44800563    -0.43800
N2306       N  0.30826298  0.98248846  0.56499700    -0.44200
N2307       N  0.40233746  0.04538415  0.47453131    -0.41600
N2308       N  0.27505116  0.07070298  0.54942360    -0.43000
H2309       H  0.33314273  0.11029690  0.53513988     0.13100
H2310       H  0.34592151  0.00391422  0.49152523     0.09600
H2311       H  0.29590183  0.01841921  0.47748543     0.10700
H2312       H  0.25315784  0.95357234  0.53688940     0.16500
C2313       C  0.52870403  0.26930145  0.47791921    -0.01700
C2314       C  0.54884884  0.25628100  0.49125849     0.06900
C2315       C  0.54482705  0.22420173  0.50164508    -0.07700
C2316       C  0.52076781  0.20578043  0.49946330     0.04300
C2317       C  0.50005272  0.21970177  0.48676906    -0.14900
C2318       C  0.50500957  0.25086149  0.47550809    -0.08200
C2319       C  0.57258899  0.27812402  0.49617115     0.05300
C2320       C  0.57432595  0.29374814  0.51634051    -0.09400
C2321       C  0.59277473  0.32031608  0.52041211     0.00300
C2322       C  0.61010811  0.33188804  0.50403115     0.00100
C2323       C  0.60969350  0.31419172  0.48434487    -0.12900
C2324       C  0.59116128  0.28762200  0.48032530     0.00600
C2325       C  0.59322626  0.33522026  0.54156560     0.39900
C2326       C  0.59097192  0.27117669  0.45960061     0.36500
C2327       C  0.53097535  0.30307159  0.46786761     0.36200
C2328       C  0.51760249  0.17366996  0.51119433     0.37000
N2329       N  0.59335712  0.34697361  0.55857421    -0.43800
N2330       N  0.59079069  0.25799582  0.44298741    -0.44200
N2331       N  0.51511189  0.14787772  0.52056925    -0.41600
N2332       N  0.53280224  0.33023520  0.45997467    -0.43000
H2333       H  0.48973364  0.26204629  0.46546043     0.13100
H2334       H  0.56020434  0.21410051  0.51201823     0.09600
H2335       H  0.56031413  0.28632687  0.52867841     0.10700
H2336       H  0.62308972  0.32213064  0.47170254     0.16500
C2337       C  0.37488834  0.42483095  0.52541367    -0.01700
C2338       C  0.39595600  0.41302114  0.53829134     0.06900
C2339       C  0.41315898  0.43747117  0.54750908    -0.07700
C2340       C  0.41032136  0.47324662  0.54327313     0.04300
C2341       C  0.39005531  0.48489039  0.52930587    -0.14900
C2342       C  0.37199548  0.46033422  0.52123294    -0.08200
C2343       C  0.40237097  0.37530261  0.53912040     0.05300
C2344       C  0.42423024  0.36357580  0.52733992    -0.09400
C2345       C  0.42658335  0.32845247  0.52165560     0.00300
C2346       C  0.40652916  0.30452586  0.52758045     0.00100
C2347       C  0.38659312  0.31560104  0.54175044    -0.12900
C2348       C  0.38448206  0.35071811  0.54762365     0.00600
C2349       C  0.44942285  0.31798652  0.50932807     0.39900
C2350       C  0.36290156  0.36138404  0.56127480     0.36500
C2351       C  0.35733253  0.40077458  0.51471013     0.36200
C2352       C  0.42957997  0.49682217  0.55231644     0.37000
N2353       N  0.46784386  0.30973620  0.49955361    -0.43800
N2354       N  0.34563335  0.36994320  0.57224736    -0.44200
N2355       N  0.44505595  0.51558794  0.55964627    -0.41600
N2356       N  0.34340106  0.38138273  0.50611285    -0.43000
H2357       H  0.35620781  0.46868912  0.51066642     0.13100
H2358       H  0.42953203  0.42842344  0.55724908     0.09600
H2359       H  0.43847443  0.38230093  0.52125380     0.10700
H2360       H  0.37154358  0.29738404  0.54708224     0.16500
C2361       C  0.30132422  0.27822399  0.45221512    -0.01700
C2362       C  0.27773517  0.26376007  0.46043167     0.06900
C2363       C  0.27888166  0.23228083  0.47173081    -0.07700
C2364       C  0.30323524  0.21724890  0.47703681     0.04300
C2365       C  0.32710523  0.23395541  0.47101223    -0.14900
C2366       C  0.32578526  0.26326739  0.45753342    -0.08200
C2367       C  0.25258860  0.28375868  0.46135704     0.05300
C2368       C  0.22949049  0.26985179  0.45226843    -0.09400
C2369       C  0.20442865  0.28348135  0.45737810     0.00300
C2370       C  0.20229248  0.31159627  0.47200026     0.00100
C2371       C  0.22579585  0.32724380  0.47942901    -0.12900
C2372       C  0.25060940  0.31328425  0.47462969     0.00600
C2373       C  0.18147509  0.26662901  0.44831384     0.39900
C2374       C  0.27345511  0.32739734  0.48551255     0.36500
C2375       C  0.30092305  0.30947640  0.43937661     0.36200
C2376       C  0.30303931  0.18529697  0.48923759     0.37000
N2377       N  0.16316313  0.25298848  0.44097941    -0.43800
N2378       N  0.29173836  0.33842638  0.49436320    -0.44200
N2379       N  0.30282691  0.15969943  0.49901061    -0.41600
N2380       N  0.30062573  0.33453434  0.42909616    -0.43000
H2381       H  0.34387104  0.27595564  0.45231529     0.13100
H2382       H  0.26073482  0.22071452  0.47775400     0.09600
H2383       H  0.23096427  0.24704051  0.44211165     0.10700
H2384       H  0.22487741  0.34914600  0.49034180     0.16500
C2385       C  0.31981590  0.12045386  0.15358783    -0.01700
C2386       C  0.32988450  0.14265381  0.13747450     0.06900
C2387       C  0.34322807  0.17302724  0.14353844    -0.07700
C2388       C  0.34875760  0.18012734  0.16495307     0.04300
C2389       C  0.34065808  0.15649799  0.18120640    -0.14900
C2390       C  0.32516680  0.12756032  0.17523508    -0.08200
C2391       C  0.33039956  0.13328581  0.11430949     0.05300
C2392       C  0.32012446  0.15681465  0.09919868    -0.09400
C2393       C  0.32628148  0.15382561  0.07733456     0.00300
C2394       C  0.34301304  0.12658969  0.07014618     0.00100
C2395       C  0.35147879  0.10163508  0.08521727    -0.12900
C2396       C  0.34578866  0.10504249  0.10699108     0.00600
C2397       C  0.31669818  0.18054843  0.06309859     0.39900
C2398       C  0.35834688  0.08116307  0.12166772     0.36500
C2399       C  0.30476434  0.08967641  0.14826541     0.36200
C2400       C  0.36390931  0.21128042  0.16938124     0.37000
N2401       N  0.30900045  0.20212737  0.05178629    -0.43800
N2402       N  0.36850108  0.06215227  0.13343822    -0.44200
N2403       N  0.37631510  0.23606082  0.17271867    -0.41600
N2404       N  0.29278773  0.06488854  0.14406041    -0.43000
H2405       H  0.31848800  0.10935626  0.18733917     0.13100
H2406       H  0.35085700  0.19037479  0.13129955     0.09600
H2407       H  0.30855887  0.17887644  0.10470373     0.10700
H2408       H  0.36401017  0.08018916  0.08020363     0.16500
C2409       C  0.24258279  0.23183498  0.24507012    -0.01700
C2410       C  0.23501994  0.25578902  0.26110920     0.06900
C2411       C  0.25023247  0.25778246  0.27976930    -0.07700
C2412       C  0.27361426  0.23835585  0.28202193     0.04300
C2413       C  0.28215949  0.21582257  0.26545187    -0.14900
C2414       C  0.26583386  0.21190918  0.24741915    -0.08200
C2415       C  0.21338307  0.28192070  0.25787710     0.05300
C2416       C  0.19048709  0.28108876  0.27069133    -0.09400
C2417       C  0.17096375  0.30732397  0.26920875     0.00300
C2418       C  0.17429654  0.33546689  0.25474834     0.00100
C2419       C  0.19726926  0.33568147  0.24185385    -0.12900
C2420       C  0.21659279  0.30965032  0.24336718     0.00600
C2421       C  0.14830031  0.30503955  0.28319679     0.39900
C2422       C  0.24025061  0.31295678  0.23051271     0.36500
C2423       C  0.22732315  0.22831723  0.22571379     0.36200
C2424       C  0.28881666  0.24281425  0.30135309     0.37000
N2425       N  0.13018209  0.30303645  0.29447248    -0.43800
N2426       N  0.25921574  0.31567015  0.22024511    -0.44200
N2427       N  0.30103374  0.24656858  0.31680730    -0.41600
N2428       N  0.21513349  0.22562897  0.21016284    -0.43000
H2429       H  0.27204833  0.19486773  0.23454803     0.13100
H2430       H  0.24452699  0.27596358  0.29220565     0.09600
H2431       H  0.18805817  0.26010708  0.28212834     0.10700
H2432       H  0.20053760  0.35667650  0.23056859     0.16500
C2433       C  0.36269693  0.35876194  0.23324233    -0.01700
C2434       C  0.38315585  0.37205794  0.22022966     0.06900
C2435       C  0.40075036  0.34888556  0.21032030    -0.07700
C2436       C  0.39916374  0.31294612  0.21412418     0.04300
C2437       C  0.37953267  0.29970737  0.22814701    -0.14900
C2438       C  0.36087777  0.32292018  0.23686377    -0.08200
C2439       C  0.38908982  0.40988378  0.21990058     0.05300
C2440       C  0.41152142  0.42144088  0.23098230    -0.09400
C2441       C  0.41537153  0.45684888  0.23516277     0.00300
C2442       C  0.39635856  0.48151917  0.22820678     0.00100
C2443       C  0.37528652  0.47007938  0.21526597    -0.12900
C2444       C  0.37151394  0.43452008  0.21112937     0.00600
C2445       C  0.43856854  0.46680194  0.24723285     0.39900
C2446       C  0.34897434  0.42373635  0.19858816     0.36500
C2447       C  0.34480319  0.38153527  0.24463067     0.36200
C2448       C  0.41933544  0.29096987  0.20484973     0.37000
N2449       N  0.45708027  0.47472935  0.25698902    -0.43800
N2450       N  0.33091749  0.41504900  0.18853389    -0.44200
N2451       N  0.43558125  0.27345129  0.19744166    -0.41600
N2452       N  0.33053677  0.39974446  0.25383945    -0.43000
H2453       H  0.34559962  0.31326713  0.24753389     0.13100
H2454       H  0.41667960  0.35914583  0.20052094     0.09600
H2455       H  0.42533593  0.40251433  0.23742846     0.10700
H2456       H  0.36076315  0.48862206  0.20948677     0.16500
C2457       C  0.43638875  0.02318191  0.25263469    -0.01700
C2458       C  0.45865210  0.02423444  0.23897161     0.06900
C2459       C  0.45946837  0.04919398  0.22268851    -0.07700
C2460       C  0.43986166  0.07484861  0.22104581     0.04300
C2461       C  0.41893661  0.07625731  0.23619481    -0.14900
C2462       C  0.41682324  0.04915851  0.25123852    -0.08200
C2463       C  0.48284695  0.00288810  0.24289139     0.05300
C2464       C  0.49196696  0.97964920  0.22718462    -0.09400
C2465       C  0.51660283  0.96280091  0.22924341     0.00300
C2466       C  0.53270980  0.96928566  0.24732147     0.00100
C2467       C  0.52306331  0.99195602  0.26321416    -0.12900
C2468       C  0.49864829  0.00883390  0.26108198     0.00600
C2469       C  0.52542334  0.94074600  0.21198243     0.39900
C2470       C  0.49104952  0.03396678  0.27714031     0.36500
C2471       C  0.43365974  0.99620290  0.26854255     0.36200
C2472       C  0.44208350  0.09964319  0.20377068     0.37000
N2473       N  0.53252712  0.92308482  0.19814164    -0.43800
N2474       N  0.48488500  0.05417283  0.28992531    -0.44200
N2475       N  0.44390935  0.11946720  0.18991939    -0.41600
N2476       N  0.43149151  0.97446597  0.28123230    -0.43000
H2477       H  0.40063953  0.04919708  0.26263469     0.13100
H2478       H  0.47622018  0.04967846  0.21182017     0.09600
H2479       H  0.48014170  0.97549478  0.21296596     0.10700
H2480       H  0.53502002  0.99743080  0.27719501     0.16500
C2481       C  0.38910756  0.11003542  0.40323044    -0.01700
C2482       C  0.39944109  0.12844721  0.38552724     0.06900
C2483       C  0.41951257  0.15316221  0.38907898    -0.07700
C2484       C  0.42806068  0.16118802  0.40981305     0.04300
C2485       C  0.41648243  0.14443463  0.42763281    -0.14900
C2486       C  0.39774466  0.11797900  0.42404818    -0.08200
C2487       C  0.38792093  0.12523450  0.36356122     0.05300
C2488       C  0.36155584  0.13574307  0.36018211    -0.09400
C2489       C  0.35138647  0.13974911  0.33944363     0.00300
C2490       C  0.36737470  0.13223706  0.32154577     0.00100
C2491       C  0.39309772  0.11938189  0.32493299    -0.12900
C2492       C  0.40353903  0.11622379  0.34565046     0.00600
C2493       C  0.32516295  0.15411695  0.33683317     0.39900
C2494       C  0.43081463  0.10562251  0.34805630     0.36500
C2495       C  0.36918029  0.08346902  0.40041561     0.36200
C2496       C  0.44844953  0.18727111  0.41247585     0.37000
N2497       N  0.30416185  0.16569950  0.33473244    -0.43800
N2498       N  0.45274451  0.09739533  0.34995135    -0.44200
N2499       N  0.46486138  0.20804449  0.41465085    -0.41600
N2500       N  0.35322058  0.06214306  0.39810520    -0.43000
H2501       H  0.38865696  0.10498125  0.43757787     0.13100
H2502       H  0.42772051  0.16740874  0.37565456     0.09600
H2503       H  0.34944736  0.14317875  0.37374775     0.10700
H2504       H  0.40586295  0.11461704  0.31129402     0.16500
C2505       C  0.65972099  0.36621956  0.35691432    -0.01700
C2506       C  0.67798133  0.39092688  0.36460212     0.06900
C2507       C  0.69547381  0.40711123  0.35021289    -0.07700
C2508       C  0.69454684  0.39943021  0.32826549     0.04300
C2509       C  0.67545414  0.37565067  0.32045139    -0.14900
C2510       C  0.65828796  0.35932129  0.33511468    -0.08200
C2511       C  0.67857863  0.40012984  0.38761329     0.05300
C2512       C  0.70078737  0.39141386  0.40000778    -0.09400
C2513       C  0.70097938  0.39747493  0.42212727     0.00300
C2514       C  0.67852149  0.41217479  0.43210919     0.00100
C2515       C  0.65659312  0.42147560  0.41951379    -0.12900
C2516       C  0.65653066  0.41589777  0.39750297     0.00600
C2517       C  0.72486816  0.39024911  0.43395906     0.39900
C2518       C  0.63374667  0.42707366  0.38533244     0.36500
C2519       C  0.64276109  0.34672936  0.37119511     0.36200
C2520       C  0.71424565  0.41477000  0.31444092     0.37000
N2521       N  0.74409542  0.38478396  0.44343364    -0.43800
N2522       N  0.61549572  0.43598898  0.37558762    -0.44200
N2523       N  0.73021200  0.42679018  0.30339272    -0.41600
N2524       N  0.62926876  0.33104787  0.38265205    -0.43000
H2525       H  0.64373676  0.34056757  0.32960154     0.13100
H2526       H  0.70992540  0.42562190  0.35616524     0.09600
H2527       H  0.71791231  0.37970540  0.39239755     0.10700
H2528       H  0.63939498  0.43342109  0.42690894     0.16500
C2529       C  0.52726770  0.54236321  0.24041117    -0.01700
C2530       C  0.53696396  0.52208012  0.25751675     0.06900
C2531       C  0.52548307  0.52592964  0.27776691    -0.07700
C2532       C  0.50339499  0.54753659  0.28079196     0.04300
C2533       C  0.49234296  0.56578915  0.26333153    -0.14900
C2534       C  0.50511797  0.56402100  0.24341537    -0.08200
C2535       C  0.55769435  0.49488798  0.25438616     0.05300
C2536       C  0.58292797  0.49943861  0.26332379    -0.09400
C2537       C  0.60259836  0.47366783  0.26130420     0.00300
C2538       C  0.59705005  0.44215790  0.25026502     0.00100
C2539       C  0.57153137  0.43791574  0.24145318    -0.12900
C2540       C  0.55205894  0.46369273  0.24343100     0.00600
C2541       C  0.62814464  0.48065896  0.27071326     0.39900
C2542       C  0.52616471  0.45706609  0.23449740     0.36500
C2543       C  0.53939404  0.54063510  0.21955868     0.36200
C2544       C  0.49220914  0.55037151  0.30194829     0.37000
N2545       N  0.64859197  0.48644406  0.27827910    -0.43800
N2546       N  0.50549242  0.45157688  0.22726046    -0.44200
N2547       N  0.48327635  0.55288612  0.31889952    -0.41600
N2548       N  0.54923467  0.53924332  0.20288709    -0.43000
H2549       H  0.49688406  0.57793685  0.22989168     0.13100
H2550       H  0.53316834  0.51095683  0.29107502     0.09600
H2551       H  0.58727267  0.52331162  0.27190869     0.10700
H2552       H  0.56649659  0.41414271  0.23302563     0.16500
C2553       C  0.81072196  0.22957304  0.23009273    -0.01700
C2554       C  0.81658138  0.26280516  0.23838645     0.06900
C2555       C  0.84202425  0.26899191  0.24670011    -0.07700
C2556       C  0.86132420  0.24245743  0.24726819     0.04300
C2557       C  0.85522248  0.20870584  0.23946153    -0.14900
C2558       C  0.82992617  0.20336251  0.23039780    -0.08200
C2559       C  0.79513206  0.28910853  0.24136313     0.05300
C2560       C  0.78642200  0.29568677  0.26221980    -0.09400
C2561       C  0.76257978  0.31324873  0.26599702     0.00300
C2562       C  0.74702984  0.32507128  0.24867782     0.00100
C2563       C  0.75700902  0.32152653  0.22785152    -0.12900
C2564       C  0.78082403  0.30350935  0.22407001     0.00600
C2565       C  0.75387832  0.31742119  0.28782891     0.39900
C2566       C  0.78945348  0.29851439  0.20230779     0.36500
C2567       C  0.78445518  0.22077428  0.22263071     0.36200
C2568       C  0.88670953  0.25053451  0.25660394     0.37000
N2569       N  0.74682344  0.32066859  0.30529916    -0.43800
N2570       N  0.79624712  0.29442532  0.18483703    -0.44200
N2571       N  0.90703053  0.25721768  0.26411030    -0.41600
N2572       N  0.76340363  0.21367506  0.21674132    -0.43000
H2573       H  0.82451673  0.17801594  0.22412265     0.13100
H2574       H  0.84653052  0.29437104  0.25339028     0.09600
H2575       H  0.79737505  0.28498517  0.27558968     0.10700
H2576       H  0.74527818  0.33051948  0.21444163     0.16500
C2577       C  0.66005353  0.16668277  0.22693289    -0.01700
C2578       C  0.64686485  0.15760202  0.20789577     0.06900
C2579       C  0.63585884  0.18384772  0.19508976    -0.07700
C2580       C  0.63742622  0.21894142  0.20129467     0.04300
C2581       C  0.65025847  0.22788991  0.22060701    -0.14900
C2582       C  0.66201793  0.20147978  0.23287242    -0.08200
C2583       C  0.64158841  0.12053141  0.20320917     0.05300
C2584       C  0.61604469  0.10792861  0.20730732    -0.09400
C2585       C  0.61195078  0.07264621  0.21176370     0.00300
C2586       C  0.63385520  0.04961235  0.21217399     0.00100
C2587       C  0.65855549  0.06151136  0.20472964    -0.12900
C2588       C  0.66256165  0.09680248  0.20027891     0.00600
C2589       C  0.58542326  0.06137892  0.21708862     0.39900
C2590       C  0.68894382  0.10869984  0.19505846     0.36500
C2591       C  0.66980916  0.14058258  0.24161923     0.36200
C2592       C  0.62568240  0.24502381  0.18765962     0.37000
N2593       N  0.56417776  0.05238988  0.22138116    -0.43800
N2594       N  0.71011113  0.11826592  0.19101163    -0.44200
N2595       N  0.61627109  0.26590351  0.17670232    -0.41600
N2596       N  0.67745017  0.11964784  0.25340166    -0.43000
H2597       H  0.67146970  0.20774007  0.24794313     0.13100
H2598       H  0.62542172  0.17678831  0.18059366     0.09600
H2599       H  0.59976016  0.12614793  0.20910115     0.10700
H2600       H  0.67541651  0.04401585  0.20430935     0.16500
C2601       C  0.53377683  0.29175837  0.28937314    -0.01700
C2602       C  0.53186876  0.25603165  0.29460059     0.06900
C2603       C  0.55517278  0.23622014  0.29627988    -0.07700
C2604       C  0.57975922  0.25032754  0.29051133     0.04300
C2605       C  0.58126975  0.28540244  0.28361926    -0.14900
C2606       C  0.55840881  0.30619339  0.28457226    -0.08200
C2607       C  0.50614427  0.23752507  0.29292801     0.05300
C2608       C  0.50367722  0.21240357  0.27681341    -0.09400
C2609       C  0.47886147  0.20035175  0.27044205     0.00300
C2610       C  0.45569936  0.21448011  0.27986045     0.00100
C2611       C  0.45841058  0.23645676  0.29773052    -0.12900
C2612       C  0.48345422  0.24762105  0.30450032     0.00600
C2613       C  0.47804546  0.17408619  0.25391032     0.39900
C2614       C  0.48535305  0.27034232  0.32280271     0.36500
C2615       C  0.51066373  0.31328345  0.28601237     0.36200
C2616       C  0.60222140  0.22706348  0.28954611     0.37000
N2617       N  0.47754523  0.15295692  0.24073299    -0.43800
N2618       N  0.48687357  0.28861100  0.33744608    -0.44200
N2619       N  0.62008754  0.20821857  0.28864160    -0.41600
N2620       N  0.49226077  0.33066705  0.28320364    -0.43000
H2621       H  0.55933609  0.33329545  0.27967602     0.13100
H2622       H  0.55377652  0.20871741  0.30015024     0.09600
H2623       H  0.52114660  0.20362982  0.26825583     0.10700
H2624       H  0.44096960  0.24636631  0.30581380     0.16500
C2625       C  0.57988929  0.42939440  0.85240759    -0.01700
C2626       C  0.58706832  0.39763390  0.86194239     0.06900
C2627       C  0.59342570  0.36896098  0.84894709    -0.07700
C2628       C  0.59489227  0.37247628  0.82669831     0.04300
C2629       C  0.59045245  0.40536531  0.81734155    -0.14900
C2630       C  0.58196073  0.43314055  0.83031207    -0.08200
C2631       C  0.59199259  0.39535415  0.88518473     0.05300
C2632       C  0.57075412  0.39622303  0.89965370    -0.09400
C2633       C  0.57523183  0.39241073  0.92163295     0.00300
C2634       C  0.60130024  0.38739891  0.92920125     0.00100
C2635       C  0.62252642  0.38827216  0.91476538    -0.12900
C2636       C  0.61811238  0.39255127  0.89295041     0.00600
C2637       C  0.55273960  0.39139444  0.93588198     0.39900
C2638       C  0.64069252  0.39384453  0.87877224     0.36500
C2639       C  0.57189662  0.45906123  0.86503785     0.36200
C2640       C  0.60289299  0.34277401  0.81415304     0.37000
N2641       N  0.53473663  0.39059463  0.94733012    -0.43800
N2642       N  0.65871436  0.39500438  0.86735752    -0.44200
N2643       N  0.60921849  0.31878033  0.80420365    -0.41600
N2644       N  0.56528570  0.48276702  0.87513549    -0.43000
H2645       H  0.57784821  0.45834739  0.82320432     0.13100
H2646       H  0.59863777  0.34432118  0.85631696     0.09600
H2647       H  0.55068176  0.39892268  0.89371016     0.10700
H2648       H  0.64260425  0.38458896  0.92052864     0.16500
C2649       C  0.64014485  0.41831832  0.09869826    -0.01700
C2650       C  0.63423454  0.39146623  0.11331792     0.06900
C2651       C  0.61952526  0.36251623  0.10638111    -0.07700
C2652       C  0.61280323  0.35859820  0.08484488     0.04300
C2653       C  0.62064024  0.38407664  0.06992010    -0.14900
C2654       C  0.63326230  0.41447495  0.07713455    -0.08200
C2655       C  0.64445784  0.39172843  0.13556415     0.05300
C2656       C  0.63473217  0.41626620  0.15020023    -0.09400
C2657       C  0.64107237  0.41381044  0.17194883     0.00300
C2658       C  0.65732159  0.38634364  0.17925502     0.00100
C2659       C  0.66847782  0.36332040  0.16439293    -0.12900
C2660       C  0.66242231  0.36602096  0.14266360     0.00600
C2661       C  0.62872696  0.43778157  0.18668084     0.39900
C2662       C  0.67424120  0.34146210  0.12801331     0.36500
C2663       C  0.65507537  0.44862629  0.10512531     0.36200
C2664       C  0.59873518  0.32766083  0.07819081     0.37000
N2665       N  0.61878031  0.45705679  0.19841416    -0.43800
N2666       N  0.68377388  0.32186087  0.11625991    -0.44200
N2667       N  0.58732918  0.30301616  0.07280302    -0.41600
N2668       N  0.66705412  0.47289589  0.11032920    -0.43000
H2669       H  0.63971356  0.43388507  0.06565293     0.13100
H2670       H  0.61432710  0.34220011  0.11768103     0.09600
H2671       H  0.62105014  0.43619375  0.14480983     0.10700
H2672       H  0.68072315  0.34193555  0.16995244     0.16500
C2673       C  0.49997508  0.30320056  0.02057701    -0.01700
C2674       C  0.48865496  0.28220151  0.00443745     0.06900
C2675       C  0.49995205  0.28281762  0.98399362    -0.07700
C2676       C  0.52317643  0.30167182  0.97984804     0.04300
C2677       C  0.53597022  0.32028404  0.99651323    -0.14900
C2678       C  0.52347510  0.32184283  0.01656632    -0.08200
C2679       C  0.46608692  0.25778511  0.00855446     0.05300
C2680       C  0.44289496  0.26051952  0.99628032    -0.09400
C2681       C  0.42253906  0.23557124  0.99780009     0.00300
C2682       C  0.42504148  0.20697505  0.01203732     0.00100
C2683       C  0.44805407  0.20506352  0.02474749    -0.12900
C2684       C  0.46850275  0.22962509  0.02291814     0.00600
C2685       C  0.40016943  0.23919452  0.98362605     0.39900
C2686       C  0.49255444  0.22386584  0.03490033     0.36500
C2687       C  0.48797418  0.30568391  0.04143544     0.36200
C2688       C  0.53342874  0.30108588  0.95829282     0.37000
N2689       N  0.38231904  0.24213529  0.97218145    -0.43800
N2690       N  0.51182627  0.21922957  0.04448599    -0.44200
N2691       N  0.54157540  0.30057526  0.94101577    -0.41600
N2692       N  0.47833199  0.30758297  0.05816068    -0.43000
H2693       H  0.53266231  0.33635899  0.02943294     0.13100
H2694       H  0.49106742  0.26746324  0.97133800     0.09600
H2695       H  0.44105024  0.28175264  0.98494775     0.10700
H2696       H  0.45069407  0.18341635  0.03566537     0.16500
C2697       C  0.61786284  0.17189854  0.01869925    -0.01700
C2698       C  0.63513203  0.16049765  0.03492964     0.06900
C2699       C  0.65015788  0.18517322  0.04619158    -0.07700
C2700       C  0.64913614  0.22068619  0.04079866     0.04300
C2701       C  0.63300892  0.23186110  0.02358335    -0.14900
C2702       C  0.61671998  0.20713912  0.01340429    -0.08200
C2703       C  0.64104442  0.12284166  0.03728280     0.05300
C2704       C  0.66566374  0.11110079  0.02994340    -0.09400
C2705       C  0.66976326  0.07594609  0.02517088     0.00300
C2706       C  0.64869079  0.05171784  0.02763601     0.00100
C2707       C  0.62519250  0.06303905  0.03761614    -0.12900
C2708       C  0.62129739  0.09829573  0.04250564     0.00600
C2709       C  0.69533038  0.06629496  0.01660623     0.39900
C2710       C  0.59632074  0.10906227  0.05161957     0.36500
C2711       C  0.60289585  0.14762909  0.00580812     0.36200
C2712       C  0.66516654  0.24465387  0.05298971     0.37000
N2713       N  0.71576010  0.05866796  0.00961983    -0.43800
N2714       N  0.57629435  0.11767584  0.05891609    -0.44200
N2715       N  0.67799245  0.26377482  0.06285440    -0.41600
N2716       N  0.59098408  0.12818823  0.99545330    -0.43000
H2717       H  0.60404125  0.21485944  0.00026579     0.13100
H2718       H  0.66351262  0.17643893  0.05864607     0.09600
H2719       H  0.68109444  0.12989984  0.02630127     0.10700
H2720       H  0.60908158  0.04486120  0.04032336     0.16500
C2721       C  0.71839041  0.48276948  0.01451638    -0.01700
C2722       C  0.71766268  0.50607955  0.99708391     0.06900
C2723       C  0.69749790  0.50216081  0.98180278    -0.07700
C2724       C  0.67851292  0.47540138  0.98349654     0.04300
C2725       C  0.67924221  0.45195819  0.00097420    -0.14900
C2726       C  0.69920753  0.45646945  0.01643622    -0.08200
C2727       C  0.73973684  0.53135228  0.99310829     0.05300
C2728       C  0.75591111  0.52619474  0.97518602    -0.09400
C2729       C  0.77920007  0.54553724  0.97223450     0.00300
C2730       C  0.78704576  0.57067172  0.98758064     0.00100
C2731       C  0.76967037  0.57778565  0.00464239    -0.12900
C2732       C  0.74616067  0.55852926  0.00743551     0.00600
C2733       C  0.79470934  0.53870913  0.95330536     0.39900
C2734       C  0.72908491  0.56683813  0.02521856     0.36500
C2735       C  0.73976811  0.48364052  0.02982611     0.36200
C2736       C  0.65990667  0.47108388  0.96620426     0.37000
N2737       N  0.80710946  0.53324466  0.93812220    -0.43800
N2738       N  0.71537879  0.57359882  0.03944750    -0.44200
N2739       N  0.64517000  0.46746408  0.95223274    -0.41600
N2740       N  0.75699667  0.48426904  0.04199937    -0.43000
H2741       H  0.70035193  0.43868714  0.02986123     0.13100
H2742       H  0.69718801  0.51933554  0.96805366     0.09600
H2743       H  0.75084049  0.50594955  0.96381639     0.10700
H2744       H  0.77500076  0.59731210  0.01639077     0.16500
C2745       C  0.82069700  0.12105642  0.65600344    -0.01700
C2746       C  0.83146943  0.14511657  0.64120332     0.06900
C2747       C  0.84256337  0.17599927  0.64913503    -0.07700
C2748       C  0.84569721  0.18137716  0.67114921     0.04300
C2749       C  0.83858891  0.15486757  0.68594335    -0.14900
C2750       C  0.82470450  0.12572372  0.67811468    -0.08200
C2751       C  0.83428522  0.13730018  0.61776994     0.05300
C2752       C  0.82483587  0.16105290  0.60239504    -0.09400
C2753       C  0.83087037  0.15716740  0.58049086     0.00300
C2754       C  0.84682551  0.12901747  0.57348263     0.00100
C2755       C  0.85528348  0.10463654  0.58889807    -0.12900
C2756       C  0.84952745  0.10869483  0.61066035     0.00600
C2757       C  0.82175267  0.18360931  0.56587098     0.39900
C2758       C  0.86136629  0.08449001  0.62552529     0.36500
C2759       C  0.80566439  0.09130170  0.64880748     0.36200
C2760       C  0.85650554  0.21441272  0.67800701     0.37000
N2761       N  0.81447256  0.20485720  0.55415163    -0.43800
N2762       N  0.87085582  0.06514418  0.63745144    -0.44200
N2763       N  0.86499634  0.24097273  0.68347474    -0.41600
N2764       N  0.79342408  0.06762162  0.64301011    -0.43000
H2765       H  0.81805768  0.10574207  0.68912375     0.13100
H2766       H  0.84994436  0.19542342  0.63803576     0.09600
H2767       H  0.81343547  0.18342423  0.60762802     0.10700
H2768       H  0.86747083  0.08273257  0.58407569     0.16500
C2769       C  0.71928237  0.30721373  0.74938975    -0.01700
C2770       C  0.71113198  0.27438750  0.75702448     0.06900
C2771       C  0.68397718  0.26832721  0.76026404    -0.07700
C2772       C  0.66509895  0.29473221  0.75643739     0.04300
C2773       C  0.67339495  0.32838997  0.74973202    -0.14900
C2774       C  0.70065985  0.33370772  0.74599848    -0.08200
C2775       C  0.73121648  0.24696646  0.76206492     0.05300
C2776       C  0.74505574  0.24914182  0.78141192    -0.09400
C2777       C  0.76777396  0.22889822  0.78510032     0.00300
C2778       C  0.77738931  0.20603903  0.76909125     0.00100
C2779       C  0.76216570  0.20181963  0.75042336    -0.12900
C2780       C  0.73931116  0.22207376  0.74682644     0.00600
C2781       C  0.78102432  0.23256209  0.80539207     0.39900
C2782       C  0.72526176  0.21833273  0.72690784     0.36500
C2783       C  0.74681548  0.31417473  0.74471174     0.36200
C2784       C  0.63742555  0.28593130  0.75861210     0.37000
N2785       N  0.79150601  0.23555983  0.82171068    -0.43800
N2786       N  0.71388087  0.21535382  0.71098377    -0.44200
N2787       N  0.61524436  0.27864832  0.76011853    -0.41600
N2788       N  0.76887257  0.31952100  0.74084269    -0.43000
H2789       H  0.70768285  0.35886698  0.74050121     0.13100
H2790       H  0.67751640  0.24287159  0.76570722     0.09600
H2791       H  0.73873679  0.26789717  0.79332695     0.10700
H2792       H  0.76902260  0.18432234  0.73800402     0.16500
C2793       C  0.86685042  0.35330882  0.74462320    -0.01700
C2794       C  0.88659200  0.36540717  0.73050032     0.06900
C2795       C  0.90276438  0.34118704  0.71998744    -0.07700
C2796       C  0.89980653  0.30528485  0.72356189     0.04300
C2797       C  0.88002969  0.29299862  0.73787451    -0.14900
C2798       C  0.86345053  0.31757002  0.74787035    -0.08200
C2799       C  0.89194374  0.40328686  0.72811824     0.05300
C2800       C  0.91586351  0.41674689  0.73599284    -0.09400
C2801       C  0.91954629  0.45275943  0.73807407     0.00300
C2802       C  0.89896475  0.47585343  0.73229442     0.00100
C2803       C  0.87616112  0.46246104  0.72242797    -0.12900
C2804       C  0.87255937  0.42644060  0.72025285     0.00600
C2805       C  0.94444894  0.46540277  0.74640003     0.39900
C2806       C  0.84837631  0.41370015  0.71073604     0.36500
C2807       C  0.85101622  0.37710978  0.75714739     0.36200
C2808       C  0.91840039  0.28220721  0.71320149     0.37000
N2809       N  0.96446470  0.47557576  0.75290692    -0.43800
N2810       N  0.82899920  0.40334311  0.70317676    -0.44200
N2811       N  0.93341459  0.26382832  0.70493412    -0.41600
N2812       N  0.83843403  0.39620172  0.76723491    -0.43000
H2813       H  0.84835698  0.30900899  0.75903651     0.13100
H2814       H  0.91825770  0.35047056  0.70939744     0.09600
H2815       H  0.93113242  0.39905434  0.74155060     0.10700
H2816       H  0.86037518  0.47998702  0.71767288     0.16500
C2817       C  0.98987233  0.97137616  0.72626257    -0.01700
C2818       C  0.97823100  0.99128609  0.74282920     0.06900
C2819       C  0.99015517  0.99083513  0.76305499    -0.07700
C2820       C  0.01412336  0.97338708  0.76656764     0.04300
C2821       C  0.02706773  0.95609841  0.74954971    -0.14900
C2822       C  0.01417418  0.95419633  0.72968938    -0.08200
C2823       C  0.95487286  0.01483059  0.73957902     0.05300
C2824       C  0.93274536  0.01170257  0.75314615    -0.09400
C2825       C  0.91280447  0.03734196  0.75368603     0.00300
C2826       C  0.91480303  0.06719367  0.74045811     0.00100
C2827       C  0.93612056  0.06899475  0.72594720    -0.12900
C2828       C  0.95604113  0.04356934  0.72551331     0.00600
C2829       C  0.89155329  0.03317619  0.76891686     0.39900
C2830       C  0.97842408  0.04920080  0.71154758     0.36500
C2831       C  0.97740882  0.96838366  0.70561738     0.36200
C2832       C  0.02500802  0.97363052  0.78789206     0.37000
N2833       N  0.87454483  0.02970635  0.78114277    -0.43800
N2834       N  0.99622608  0.05377506  0.70022717    -0.44200
N2835       N  0.03367168  0.97366441  0.80499111    -0.41600
N2836       N  0.96749871  0.96599744  0.68902919    -0.43000
H2837       H  0.02361862  0.94057739  0.71656522     0.13100
H2838       H  0.98115939  0.00528497  0.77605756     0.09600
H2839       H  0.93165295  0.98981981  0.76407462     0.10700
H2840       H  0.93795728  0.09130187  0.71541354     0.16500
C2841       C  0.97835127  0.25475344  0.80253718    -0.01700
C2842       C  0.00116804  0.23855258  0.79418157     0.06900
C2843       C  0.99897034  0.20540748  0.78494832    -0.07700
C2844       C  0.97407050  0.19034509  0.78150975     0.04300
C2845       C  0.95088693  0.20892621  0.78714293    -0.14900
C2846       C  0.95341136  0.23990250  0.79895713    -0.08200
C2847       C  0.02624244  0.25808435  0.79109264     0.05300
C2848       C  0.04958029  0.24681287  0.80105113    -0.09400
C2849       C  0.07416985  0.26180759  0.79586467     0.00300
C2850       C  0.07563462  0.28831859  0.78010058     0.00100
C2851       C  0.05182602  0.30060964  0.77110580    -0.12900
C2852       C  0.02746194  0.28563185  0.77624576     0.00600
C2853       C  0.09736845  0.24897812  0.80678503     0.39900
C2854       C  0.00421226  0.29734785  0.76483446     0.36500
C2855       C  0.97997461  0.28781208  0.81345883     0.36200
C2856       C  0.97284784  0.15647334  0.77147530     0.37000
N2857       N  0.11590159  0.23869514  0.81563922    -0.43800
N2858       N  0.98560137  0.30665644  0.75568486    -0.44200
N2859       N  0.97183261  0.12928373  0.76351879    -0.41600
N2860       N  0.98129617  0.31431506  0.82220271    -0.43000
H2861       H  0.93585521  0.25409302  0.80386867     0.13100
H2862       H  0.01658375  0.19243162  0.77899778     0.09600
H2863       H  0.04863736  0.22563655  0.81249871     0.10700
H2864       H  0.05217884  0.32094699  0.75908761     0.16500
C2865       C  0.92436939  0.17161134  0.10833629    -0.01700
C2866       C  0.94236279  0.14619273  0.11557174     0.06900
C2867       C  0.95653084  0.12662020  0.10042435    -0.07700
C2868       C  0.95246578  0.13145974  0.07833326     0.04300
C2869       C  0.93359540  0.15615625  0.07101203    -0.14900
C2870       C  0.92040431  0.17661604  0.08644392    -0.08200
C2871       C  0.94361358  0.13717203  0.13874698     0.05300
C2872       C  0.93098864  0.10664520  0.14558635    -0.09400
C2873       C  0.92550664  0.10096595  0.16725307     0.00300
C2874       C  0.93257770  0.12640103  0.18271093     0.00100
C2875       C  0.94755968  0.15533416  0.17599887    -0.12900
C2876       C  0.95308752  0.16083894  0.15423550     0.00600
C2877       C  0.91208633  0.06901625  0.17297848     0.39900
C2878       C  0.96762294  0.19160766  0.14803024     0.36500
C2879       C  0.90818704  0.19113162  0.12315643     0.36200
C2880       C  0.96714126  0.10964569  0.06376771     0.37000
N2881       N  0.90132294  0.04339070  0.17745458    -0.43800
N2882       N  0.97935966  0.21622594  0.14306411    -0.44200
N2883       N  0.97897898  0.09212894  0.05213587    -0.41600
N2884       N  0.89520647  0.20648201  0.13513965    -0.43000
H2885       H  0.90593241  0.19585818  0.08150238     0.13100
H2886       H  0.97021525  0.10676283  0.10589665     0.09600
H2887       H  0.92400546  0.08806934  0.13380754     0.10700
H2888       H  0.95368426  0.17472183  0.18757723     0.16500
C2889       C  0.75238382  0.29584573  0.96366009    -0.01700
C2890       C  0.75188997  0.26322295  0.95335504     0.06900
C2891       C  0.72772955  0.24954370  0.94632611    -0.07700
C2892       C  0.70384881  0.26648549  0.95105218     0.04300
C2893       C  0.70407600  0.29728723  0.96363513    -0.14900
C2894       C  0.72864263  0.31263432  0.96856686    -0.08200
C2895       C  0.77547343  0.24053008  0.95412507     0.05300
C2896       C  0.77622329  0.21520950  0.97019805    -0.09400
C2897       C  0.80028264  0.20088112  0.97677616     0.00300
C2898       C  0.82420058  0.21222191  0.96714510     0.00100
C2899       C  0.82283567  0.23405963  0.94911030    -0.12900
C2900       C  0.79864684  0.24832786  0.94260104     0.00600
C2901       C  0.79972737  0.17601995  0.99410729     0.39900
C2902       C  0.79823939  0.27269372  0.92505809     0.36500
C2903       C  0.77686219  0.31089259  0.97131459     0.36200
C2904       C  0.67963552  0.25039704  0.94373333     0.37000
N2905       N  0.79908756  0.15620931  0.00803239    -0.43800
N2906       N  0.79788236  0.29216304  0.91095422    -0.44200
N2907       N  0.66030506  0.23747280  0.93772506    -0.41600
N2908       N  0.79650410  0.32278670  0.97745556    -0.43000
H2909       H  0.72941289  0.33668791  0.97762941     0.13100
H2910       H  0.72744844  0.22455816  0.93823144     0.09600
H2911       H  0.75820948  0.20872933  0.97880731     0.10700
H2912       H  0.84083762  0.24224276  0.94108879     0.16500
C2913       C  0.88951075  0.08948034  0.90647076    -0.01700
C2914       C  0.89932882  0.10702527  0.88824571     0.06900
C2915       C  0.92063077  0.13019715  0.89086114    -0.07700
C2916       C  0.93028166  0.13857331  0.91124920     0.04300
C2917       C  0.91846679  0.12405332  0.92968188    -0.14900
C2918       C  0.89902290  0.09813329  0.92698828    -0.08200
C2919       C  0.88560344  0.10581760  0.86697892     0.05300
C2920       C  0.86043520  0.12122898  0.86513410    -0.09400
C2921       C  0.84925169  0.12835421  0.84502850     0.00300
C2922       C  0.86289450  0.11922631  0.82613894     0.00100
C2923       C  0.88705256  0.10120894  0.82800605    -0.12900
C2924       C  0.89854599  0.09478678  0.84813399     0.00600
C2925       C  0.82442963  0.14693826  0.84415530     0.39900
C2926       C  0.92423759  0.07837893  0.84902488     0.36500
C2927       C  0.86934873  0.06303061  0.90446166     0.36200
C2928       C  0.95185403  0.16311576  0.91296109     0.37000
N2929       N  0.80448996  0.16177261  0.84356777    -0.43800
N2930       N  0.94485627  0.06524940  0.84970943    -0.44200
N2931       N  0.96933503  0.18250243  0.91431771    -0.41600
N2932       N  0.85341275  0.04150744  0.90280734    -0.43000
H2933       H  0.88990089  0.08645102  0.94095050     0.13100
H2934       H  0.92875928  0.14338022  0.87700329     0.09600
H2935       H  0.85030686  0.13001112  0.87943307     0.10700
H2936       H  0.89804433  0.09467327  0.81366493     0.16500
C2937       C  0.81371839  0.05380502  0.02201558    -0.01700
C2938       C  0.81851255  0.02294461  0.01045806     0.06900
C2939       C  0.84321929  0.01846893  0.00052932    -0.07700
C2940       C  0.86280982  0.04452986  0.00148860     0.04300
C2941       C  0.85776368  0.07611610  0.01258045    -0.14900
C2942       C  0.83326505  0.07962756  0.02321040    -0.08200
C2943       C  0.79669124  0.99771930  0.00616144     0.05300
C2944       C  0.78571122  0.99719450  0.98566321    -0.09400
C2945       C  0.76221472  0.97908795  0.98151260     0.00300
C2946       C  0.74900989  0.96097642  0.99817154     0.00100
C2947       C  0.76127972  0.95900597  0.01827734    -0.12900
C2948       C  0.78495766  0.97723862  0.02235745     0.00600
C2949       C  0.75172266  0.98045192  0.96005866     0.39900
C2950       C  0.79654677  0.97538402  0.04336962     0.36500
C2951       C  0.78817084  0.06075745  0.03151908     0.36200
C2952       C  0.88719566  0.03856246  0.99000204     0.37000
N2953       N  0.74324724  0.98165420  0.94291205    -0.43800
N2954       N  0.80595238  0.97383728  0.06018194    -0.44200
N2955       N  0.90668978  0.03360783  0.98074359    -0.41600
N2956       N  0.76769390  0.06648985  0.03906272    -0.43000
H2957       H  0.82881661  0.10331678  0.03192826     0.13100
H2958       H  0.84685114  0.99498243  0.99135302     0.09600
H2959       H  0.79486025  0.01244593  0.97306505     0.10700
H2960       H  0.75161359  0.94498911  0.03114225     0.16500
C2961       C  0.03552445  0.22903561  0.00937862    -0.01700
C2962       C  0.04234627  0.25629162  0.99521030     0.06900
C2963       C  0.02716841  0.26090325  0.97671873    -0.07700
C2964       C  0.00438831  0.24090548  0.97299451     0.04300
C2965       C  0.99614397  0.21544187  0.98804596    -0.14900
C2966       C  0.01260388  0.20892061  0.00573419    -0.08200
C2967       C  0.06380491  0.28213543  0.99988030     0.05300
C2968       C  0.08539534  0.28526208  0.98584934    -0.09400
C2969       C  0.10436507  0.31185331  0.98833709     0.00300
C2970       C  0.10196909  0.33630179  0.00524346     0.00100
C2971       C  0.08035548  0.33277985  0.01935095    -0.12900
C2972       C  0.06140681  0.30630000  0.01675677     0.00600
C2973       C  0.12519058  0.31431753  0.97257796     0.39900
C2974       C  0.03885465  0.30558585  0.03096241     0.36500
C2975       C  0.05153339  0.22164573  0.02790831     0.36200
C2976       C  0.98965842  0.24772883  0.95368567     0.37000
N2977       N  0.14181809  0.31632958  0.95989568    -0.43800
N2978       N  0.02071801  0.30491585  0.04227424    -0.44200
N2979       N  0.97789584  0.25349966  0.93823759    -0.41600
N2980       N  0.06440551  0.21568396  0.04274288    -0.43000
H2981       H  0.00689407  0.18929542  0.01731800     0.13100
H2982       H  0.03254730  0.28129371  0.96552097     0.09600
H2983       H  0.08707884  0.26728237  0.97255910     0.10700
H2984       H  0.07795212  0.35113485  0.03236688     0.16500
C2985       C  0.87524352  0.34765538  0.03699610    -0.01700
C2986       C  0.89117813  0.37251157  0.02641796     0.06900
C2987       C  0.91111510  0.36080356  0.01256834    -0.07700
C2988       C  0.91440055  0.32528296  0.00815717     0.04300
C2989       C  0.89731832  0.30030855  0.01762957    -0.14900
C2990       C  0.87837388  0.31196807  0.03253634    -0.08200
C2991       C  0.88676966  0.41089127  0.02823536     0.05300
C2992       C  0.90755196  0.43224950  0.03543403    -0.09400
C2993       C  0.90635621  0.46869296  0.03335484     0.00300
C2994       C  0.88399603  0.48446144  0.02372898     0.00100
C2995       C  0.86254601  0.46311413  0.01782872    -0.12900
C2996       C  0.86375967  0.42678409  0.01991643     0.00600
C2997       C  0.92929830  0.48876380  0.03955452     0.39900
C2998       C  0.84193514  0.40636540  0.01181317     0.36500
C2999       C  0.85548018  0.35817416  0.05236127     0.36200
C3000       C  0.93558001  0.31545711  0.99384108     0.37000
N3001       N  0.94776300  0.50470574  0.04452406    -0.43800
N3002       N  0.82436571  0.39011076  0.00535525    -0.44200
N3003       N  0.95258135  0.30771937  0.98237553    -0.41600
N3004       N  0.83961643  0.36660032  0.06466949    -0.43000
H3005       H  0.86529314  0.29331899  0.04017772     0.13100
H3006       H  0.92373963  0.37969573  0.00463105     0.09600
H3007       H  0.92536153  0.42024277  0.04173178     0.10700
H3008       H  0.84519510  0.47475321  0.01051854     0.16500
loop_ 
_geom_bond_atom_site_label_1 
_geom_bond_atom_site_label_2 
_geom_bond_distance 
_geom_bond_site_symmetry_2 
_ccdc_geom_bond_type 
Fe1          O17   2.061       .  S
Fe1           O7   2.052       .  S
Fe1          O14   2.060       .  S
Fe1           O6   2.049       .  S
Fe1          O12   1.977       .  S
Fe2           O5   2.051       .  S
Fe2           O9   2.080       .  S
Fe2          O13   2.054   1_554  S
Fe2          O18   2.063       .  S
Fe2          O12   1.974   1_554  S
Fe3          O21   2.102       .  S
Fe3           O8   2.086       .  S
Fe3          O15   2.106   1_554  S
Fe3           O4   2.108   1_554  S
Fe3          O12   1.986   1_554  S
O4           C11   1.273       .  A
O5           C19   1.267       .  A
O6           C11   1.263       .  A
O7           C10   1.269       .  A
O8           C20   1.273       .  A
O9           C22   1.271       .  A
C10          O15   1.279       .  A
C10        C2965   1.497       .  S
C11        C2917   1.492       .  S
O13          C16   1.267       .  A
O14          C16   1.268       .  A
C16        C2898   1.483       .  S
O17          C22   1.267   1_556  A
O18          C20   1.271       .  A
C19          O21   1.275       .  A
C19        C2869   1.506       .  S
C20        C2941   1.501       .  S
C22        C2989   1.495       .  S
Fe23         O39   2.054       .  S
Fe23         O29   2.065       .  S
Fe23         O36   2.073       .  S
Fe23         O28   2.048       .  S
Fe23         O34   1.981       .  S
Fe24         O27   2.049       .  S
Fe24         O31   2.069       .  S
Fe24         O35   2.051       .  S
Fe24         O40   2.058       .  S
Fe24         O34   1.970       .  S
Fe25         O43   2.120       .  S
Fe25         O30   2.087       .  S
Fe25         O37   2.098       .  S
Fe25         O26   2.119       .  S
Fe25         O34   1.985       .  S
O26          C33   1.279       .  A
O27          C41   1.268       .  A
O28          C33   1.265       .  A
O29          C32   1.268       .  A
O30          C42   1.271       .  A
O31          C44   1.267       .  A
C32          O37   1.274       .  A
C32        C2778   1.499       .  S
C33        C2922   1.490       .  S
O35          C38   1.267       .  A
O36          C38   1.270       .  A
C38        C2845   1.482       .  S
O39          C44   1.267       .  A
O40          C42   1.267       .  A
C41          O43   1.281       .  A
C41        C2749   1.503       .  S
C42        C2826   1.500       .  S
C44        C2797   1.493       .  S
Fe45         O61   2.041   1_556  S
Fe45         O51   2.065       .  S
Fe45         O58   2.071       .  S
Fe45         O50   2.032       .  S
Fe45         O56   1.941       .  S
Fe46         O49   2.038       .  S
Fe46         O53   2.095       .  S
Fe46         O57   2.051   1_554  S
Fe46         O62   2.085       .  S
Fe46         O56   1.941   1_554  S
Fe47         O65   2.100       .  S
Fe47         O52   2.082   1_554  S
Fe47         O59   2.090       .  S
Fe47         O48   2.103   1_554  S
Fe47         O56   1.955   1_554  S
O48          C55   1.276       .  A
O49          C63   1.264       .  A
O50          C55   1.265       .  A
O51          C54   1.268       .  A
O52          C64   1.275   1_556  A
O53          C66   1.275       .  A
C54          O59   1.275   1_556  A
C54        C2677   1.494       .  S
C55        C2634   1.471       .  S
O57          C60   1.266       .  A
O58          C60   1.267       .  A
C60        C2893   1.489       .  S
O61          C66   1.268       .  A
O62          C64   1.275       .  A
C63          O65   1.274       .  A
C63        C2653   1.471       .  S
C64        C2725   1.499       .  S
C66        C2701   1.492       .  S
Fe67         O83   2.036       .  S
Fe67         O73   2.062       .  S
Fe67         O80   2.083       .  S
Fe67         O72   2.022       .  S
Fe67         O78   1.944       .  S
Fe68         O71   2.032       .  S
Fe68         O75   2.087       .  S
Fe68         O79   2.037       .  S
Fe68         O84   2.078       .  S
Fe68         O78   1.940       .  S
Fe69         O87   2.111       .  S
Fe69         O74   2.075       .  S
Fe69         O81   2.086       .  S
Fe69         O70   2.114       .  S
Fe69         O78   1.953       .  S
O70          C77   1.280       .  A
O71          C85   1.265       .  A
O72          C77   1.265       .  A
O73          C76   1.268       .  A
O74          C86   1.272       .  A
O75          C88   1.272       .  A
C76          O81   1.273       .  A
C76        C2562   1.484       .  S
C77        C2509   1.488       .  S
O79          C82   1.266       .  A
O80          C82   1.270       .  A
C82        C2605   1.481       .  S
O83          C88   1.265       .  A
O84          C86   1.273       .  A
C85          O87   1.278       .  A
C85        C2658   1.471       .  S
C86        C2538   1.502       .  S
C88        C2581   1.479       .  S
Fe89        O105   2.051       .  S
Fe89         O95   2.053       .  S
Fe89        O102   2.064       .  S
Fe89         O94   2.036       .  S
Fe89        O100   1.981       .  S
Fe90         O93   2.036       .  S
Fe90         O97   2.065       .  S
Fe90        O101   2.045       .  S
Fe90        O106   2.049       .  S
Fe90        O100   1.971       .  S
Fe91        O109   2.109       .  S
Fe91         O96   2.093       .  S
Fe91        O103   2.103       .  S
Fe91         O92   2.109       .  S
Fe91        O100   1.987       .  S
O92          C99   1.276       .  A
O93         C107   1.264       .  A
O94          C99   1.261       .  A
O95          C98   1.267       .  A
O96         C108   1.273       .  A
O97         C110   1.267       .  A
C98         O103   1.276       .  A
C98        C2413   1.495       .  S
C99        C2490   1.481       .  S
O101        C104   1.265       .  A
O102        C104   1.268       .  A
C104       C2610   1.484       .  S
O105        C110   1.266       .  A
O106        C108   1.266       .  A
C107        O109   1.278       .  A
C107       C2389   1.498       .  S
C108       C2461   1.494       .  S
C110       C2437   1.486       .  S
Fe111       O127   2.060       .  S
Fe111       O117   2.044       .  S
Fe111       O124   2.066       .  S
Fe111       O116   2.052       .  S
Fe111       O122   1.979       .  S
Fe112       O115   2.049       .  S
Fe112       O119   2.065       .  S
Fe112       O123   2.060       .  S
Fe112       O128   2.056       .  S
Fe112       O122   1.974       .  S
Fe113       O131   2.100       .  S
Fe113       O118   2.090       .  S
Fe113       O125   2.100       .  S
Fe113       O114   2.103       .  S
Fe113       O122   1.988       .  S
O114        C121   1.276       .  A
O115        C129   1.267       .  A
O116        C121   1.267       .  A
O117        C120   1.266       .  A
O118        C130   1.273       .  A
O119        C132   1.267       .  A
C120        O125   1.274       .  A
C120       C2317   1.501       .  S
C121       C2485   1.488       .  S
O123        C126   1.268       .  A
O124        C126   1.268       .  A
C126       C2365   1.486       .  S
O127        C132   1.267       .  A
O128        C130   1.268       .  A
C129        O131   1.276       .  A
C129       C2269   1.493       .  S
C130       C2293   1.499       .  S
C132       C2346   1.485       .  S
Fe133       O149   2.041       .  S
Fe133       O139   2.076       .  S
Fe133       O146   2.094       .  S
Fe133       O138   2.032       .  S
Fe133       O144   1.941       .  S
Fe134       O137   2.031       .  S
Fe134       O141   2.099       .  S
Fe134       O145   2.041       .  S
Fe134       O150   2.091       .  S
Fe134       O144   1.940       .  S
Fe135       O153   2.110       .  S
Fe135       O140   2.082       .  S
Fe135       O147   2.087       .  S
Fe135       O136   2.111       .  S
Fe135       O144   1.959       .  S
O136        C143   1.278       .  A
O137        C151   1.264       .  A
O138        C143   1.266       .  A
O139        C142   1.273       .  A
O140        C152   1.275       .  A
O141        C154   1.273       .  A
C142        O147   1.275       .  A
C142       C2197   1.499       .  S
C143       C2149   1.497       .  S
O145        C148   1.267       .  A
O146        C148   1.274       .  A
C148       C2850   1.494       .  S
O149        C154   1.266       .  A
O150        C152   1.276       .  A
C151        O153   1.276       .  A
C151       C2245   1.475       .  S
C152       C2173   1.508       .  S
C154       C2221   1.497       .  S
Fe155       O171   2.032       .  S
Fe155       O161   2.085       .  S
Fe155       O168   2.093       .  S
Fe155       O160   2.023       .  S
Fe155       O166   1.931       .  S
Fe156       O159   2.037       .  S
Fe156       O163   2.085       .  S
Fe156       O167   2.043       .  S
Fe156       O172   2.084       .  S
Fe156       O166   1.927       .  S
Fe157       O175   2.102       .  S
Fe157       O162   2.072       .  S
Fe157       O169   2.080       .  S
Fe157       O158   2.107       .  S
Fe157       O166   1.950       .  S
O158        C165   1.275       .  A
O159        C173   1.262       .  A
O160        C165   1.262       .  A
O161        C164   1.275       .  A
O162        C174   1.276       .  A
O163        C176   1.273       .  A
C164        O169   1.275       .  A
C164       C2077   1.490       .  S
C165       C2053   1.471       .  S
O167        C170   1.266       .  A
O168        C170   1.272       .  A
C170       C2370   1.495       .  S
O171        C176   1.266       .  A
O172        C174   1.276       .  A
C173        O175   1.272       .  A
C173       C2250   1.471       .  S
C174       C2125   1.491       .  S
C176       C2101   1.485       .  S
Fe177       O193   2.046       .  S
Fe177       O183   2.064       .  S
Fe177       O190   2.079       .  S
Fe177       O182   2.031       .  S
Fe177       O188   1.945       .  S
Fe178       O181   2.035       .  S
Fe178       O185   2.090       .  S
Fe178       O189   2.047       .  S
Fe178       O194   2.077       .  S
Fe178       O188   1.947       .  S
Fe179       O197   2.104       .  S
Fe179       O184   2.082       .  S
Fe179       O191   2.094       .  S
Fe179       O180   2.094       .  S
Fe179       O188   1.964       .  S
O180        C187   1.274       .  A
O181        C195   1.266       .  A
O182        C187   1.265       .  A
O183        C186   1.271       .  A
O184        C196   1.274       .  A
O185        C198   1.272       .  A
C186        O191   1.277       .  A
C186       C1938   1.497       .  S
C187       C1909   1.474       .  S
O189        C192   1.267       .  A
O190        C192   1.270       .  A
C192       C1986   1.484       .  S
O193        C198   1.267       .  A
O194        C196   1.272       .  A
C195        O197   1.276       .  A
C195       C2005   1.477       .  S
C196       C2029   1.492       .  S
C198       C1962   1.490       .  S
Fe199       O215   2.051       .  S
Fe199       O205   2.081       .  S
Fe199       O212   2.094       .  S
Fe199       O204   2.034       .  S
Fe199       O210   1.945       .  S
Fe200       O203   2.036       .  S
Fe200       O207   2.090       .  S
Fe200       O211   2.037       .  S
Fe200       O216   2.083       .  S
Fe200       O210   1.945       .  S
Fe201       O219   2.105       .  S
Fe201       O206   2.083       .  S
Fe201       O213   2.086       .  S
Fe201       O202   2.103       .  S
Fe201       O210   1.964       .  S
O202        C209   1.274       .  A
O203        C217   1.263       .  A
O204        C209   1.264       .  A
O205        C208   1.275       .  A
O206        C218   1.275       .  A
O207        C220   1.271       .  A
C208        O213   1.277       .  A
C208       C1861   1.489       .  S
C209       C1789   1.486       .  S
O211        C214   1.266       .  A
O212        C214   1.276       .  A
C214       C1837   1.483       .  S
O215        C220   1.266       .  A
O216        C218   1.273       .  A
C217        O219   1.274       .  A
C217       C2010   1.469       .  S
C218       C1813   1.502       .  S
C220       C1890   1.496       .  S
Fe221       O237   2.059       .  S
Fe221       O227   2.044       .  S
Fe221       O234   2.060       .  S
Fe221       O226   2.044       .  S
Fe221       O232   1.983       .  S
Fe222       O225   2.048       .  S
Fe222       O229   2.070       .  S
Fe222       O233   2.052   1_554  S
Fe222       O238   2.057       .  S
Fe222       O232   1.972   1_554  S
Fe223       O241   2.101       .  S
Fe223       O228   2.088       .  S
Fe223       O235   2.100   1_554  S
Fe223       O224   2.106   1_554  S
Fe223       O232   1.985   1_554  S
O224        C231   1.276       .  A
O225        C239   1.269       .  A
O226        C231   1.265       .  A
O227        C230   1.265       .  A
O228        C240   1.272       .  A
O229        C242   1.268       .  A
C230        O235   1.275       .  A
C230       C1741   1.488       .  S
C231       C1722   1.485       .  S
O233        C236   1.268       .  A
O234        C236   1.267       .  A
C236       C1698   1.477       .  S
O237        C242   1.267   1_556  A
O238        C240   1.266       .  A
C239        O241   1.277       .  A
C239       C1645   1.503       .  S
C240       C1669   1.499       .  S
C242       C1765   1.488       .  S
Fe243       O259   2.059       .  S
Fe243       O249   2.050       .  S
Fe243       O256   2.063       .  S
Fe243       O248   2.049       .  S
Fe243       O254   1.970       .  S
Fe244       O247   2.046       .  S
Fe244       O251   2.066       .  S
Fe244       O255   2.052       .  S
Fe244       O260   2.051       .  S
Fe244       O254   1.966       .  S
Fe245       O263   2.092       .  S
Fe245       O250   2.096       .  S
Fe245       O257   2.107       .  S
Fe245       O246   2.097       .  S
Fe245       O254   1.981       .  S
O246        C253   1.273       .  A
O247        C261   1.265       .  A
O248        C253   1.265       .  A
O249        C252   1.269       .  A
O250        C262   1.276       .  A
O251        C264   1.269       .  A
C252        O257   1.278       .  A
C252       C1597   1.501       .  S
C253       C1717   1.494       .  S
O255        C258   1.265       .  A
O256        C258   1.267       .  A
C258       C1981   1.485       .  S
O259        C264   1.269       .  A
O260        C262   1.269       .  A
C261        O263   1.272       .  A
C261       C1549   1.480       .  S
C262       C1573   1.486       .  S
C264       C1626   1.483       .  S
Fe265       O281   2.041   1_556  S
Fe265       O271   2.053       .  S
Fe265       O278   2.072       .  S
Fe265       O270   2.031       .  S
Fe265       O276   1.954   1_556  S
Fe266       O269   2.035       .  S
Fe266       O273   2.087       .  S
Fe266       O277   2.044   1_554  S
Fe266       O282   2.071       .  S
Fe266       O276   1.951       .  S
Fe267       O285   2.107       .  S
Fe267       O272   2.087   1_554  S
Fe267       O279   2.093       .  S
Fe267       O268   2.110   1_554  S
Fe267       O276   1.972       .  S
O268        C275   1.278       .  A
O269        C283   1.264       .  A
O270        C275   1.265       .  A
O271        C274   1.268   1_556  A
O272        C284   1.275   1_556  A
O273        C286   1.271       .  A
C274        O279   1.274       .  A
C274       C1458   1.486       .  S
C275       C1434   1.491       .  S
O277        C280   1.267       .  A
O278        C280   1.267       .  A
C280       C1693   1.490       .  S
O281        C286   1.266       .  A
O282        C284   1.272       .  A
C283        O285   1.276       .  A
C283       C1506   1.474       .  S
C284       C1530   1.500   1_554  S
C286       C1477   1.493       .  S
Fe287       O303   2.031       .  S
Fe287       O293   2.082       .  S
Fe287       O300   2.086       .  S
Fe287       O292   2.015       .  S
Fe287       O298   1.923       .  S
Fe288       O291   2.027       .  S
Fe288       O295   2.107       .  S
Fe288       O299   2.034       .  S
Fe288       O304   2.107       .  S
Fe288       O298   1.927       .  S
Fe289       O307   2.120       .  S
Fe289       O294   2.071       .  S
Fe289       O301   2.078       .  S
Fe289       O290   2.125       .  S
Fe289       O298   1.944       .  S
O290        C297   1.279       .  A
O291        C305   1.261       .  A
O292        C297   1.260       .  A
O293        C296   1.274       .  A
O294        C306   1.275       .  A
O295        C308   1.276       .  A
C296        O301   1.276       .  A
C296       C1386   1.489       .  S
C297       C1309   1.485       .  S
O299        C302   1.264       .  A
O300        C302   1.273       .  A
C302       C1357   1.481       .  S
O303        C308   1.264       .  A
O304        C306   1.280       .  A
C305        O307   1.278       .  A
C305       C1501   1.475       .  S
C306       C1338   1.497       .  S
C308       C1410   1.487       .  S
Fe309       O325   2.057       .  S
Fe309       O315   2.042       .  S
Fe309       O322   2.058       .  S
Fe309       O314   2.054       .  S
Fe309       O320   1.977       .  S
Fe310       O313   2.046       .  S
Fe310       O317   2.061       .  S
Fe310       O321   2.049       .  S
Fe310       O326   2.052       .  S
Fe310       O320   1.967       .  S
Fe311       O329   2.094       .  S
Fe311       O316   2.099       .  S
Fe311       O323   2.106       .  S
Fe311       O312   2.099       .  S
Fe311       O320   1.978       .  S
O312        C319   1.273       .  A
O313        C327   1.264       .  A
O314        C319   1.264       .  A
O315        C318   1.267       .  A
O316        C328   1.277       .  A
O317        C330   1.268       .  A
C318        O323   1.278       .  A
C318       C1218   1.494       .  S
C319       C1266   1.487       .  S
O321        C324   1.267       .  A
O322        C324   1.266       .  A
C324       C1362   1.480       .  S
O325        C330   1.268       .  A
O326        C328   1.268       .  A
C327        O329   1.272       .  A
C327       C1189   1.480       .  S
C328       C1285   1.503       .  S
C330       C1237   1.476       .  S
Fe331       O347   2.058       .  S
Fe331       O337   2.050       .  S
Fe331       O344   2.063       .  S
Fe331       O336   2.048       .  S
Fe331       O342   1.979       .  S
Fe332       O335   2.044       .  S
Fe332       O339   2.066       .  S
Fe332       O343   2.053       .  S
Fe332       O348   2.057       .  S
Fe332       O342   1.971       .  S
Fe333       O351   2.106       .  S
Fe333       O338   2.090       .  S
Fe333       O345   2.100       .  S
Fe333       O334   2.110       .  S
Fe333       O342   1.987       .  S
O334        C341   1.277       .  A
O335        C349   1.268       .  A
O336        C341   1.266       .  A
O337        C340   1.267       .  A
O338        C350   1.273       .  A
O339        C352   1.267       .  A
C340        O345   1.275       .  A
C340       C1122   1.499       .  S
C341       C1261   1.488       .  S
O343        C346   1.268       .  A
O344        C346   1.267       .  A
C346       C1842   1.491       .  S
O347        C352   1.268       .  A
O348        C350   1.266       .  A
C349        O351   1.277       .  A
C349       C1098   1.501       .  S
C350       C1170   1.501       .  S
C352       C1141   1.491       .  S
Fe353       O369   2.056       .  S
Fe353       O359   2.049       .  S
Fe353       O366   2.064       .  S
Fe353       O358   2.044       .  S
Fe353       O364   1.981       .  S
Fe354       O357   2.051       .  S
Fe354       O361   2.062       .  S
Fe354       O365   2.056       .  S
Fe354       O370   2.053       .  S
Fe354       O364   1.975       .  S
Fe355       O373   2.113       .  S
Fe355       O360   2.095       .  S
Fe355       O367   2.104       .  S
Fe355       O356   2.113       .  S
Fe355       O364   1.985       .  S
O356        C363   1.276       .  A
O357        C371   1.267       .  A
O358        C363   1.263       .  A
O359        C362   1.268       .  A
O360        C372   1.274       .  A
O361        C374   1.266       .  A
C362        O367   1.277       .  A
C362       C1818   1.495       .  S
C363       C1069   1.490       .  S
O365        C368   1.267       .  A
O366        C368   1.268       .  A
C368       C1045   1.491       .  S
O369        C374   1.266       .  A
O370        C372   1.268       .  A
C371        O373   1.278       .  A
C371       C2754   1.506       .  S
C372       C2082   1.502       .  S
C374       C1146   1.482   1_545  S
Fe375       O391   2.051       .  S
Fe375       O381   2.037       .  S
Fe375       O388   2.052       .  S
Fe375       O380   2.050       .  S
Fe375       O386   1.975       .  S
Fe376       O379   2.055       .  S
Fe376       O383   2.058       .  S
Fe376       O387   2.062       .  S
Fe376       O392   2.039       .  S
Fe376       O386   1.970       .  S
Fe377       O395   2.100       .  S
Fe377       O382   2.103       .  S
Fe377       O389   2.116       .  S
Fe377       O378   2.107       .  S
Fe377       O386   1.984       .  S
O378        C385   1.275       .  A
O379        C393   1.269       .  A
O380        C385   1.264       .  A
O381        C384   1.265       .  A
O382        C394   1.274       .  A
O383        C396   1.263       .  A
C384        O389   1.278       .  A
C384       C1333   1.499       .  S
C385       C1074   1.489       .  S
O387        C390   1.271       .  A
O388        C390   1.267       .  A
C390       C1021   1.471       .  S
O391        C396   1.265       .  A
O392        C394   1.264       .  A
C393        O395   1.278       .  A
C393       C2874   1.496       .  S
C394       C2557   1.504       .  S
C396       C1242   1.484   1_545  S
Fe397       O413   2.047   1_565  S
Fe397       O403   2.073       .  S
Fe397       O410   2.088       .  S
Fe397       O402   2.034       .  S
Fe397       O408   1.943       .  S
Fe398       O401   2.029       .  S
Fe398       O405   2.092       .  S
Fe398       O409   2.034       .  S
Fe398       O414   2.085       .  S
Fe398       O408   1.938       .  S
Fe399       O417   2.113       .  S
Fe399       O404   2.083       .  S
Fe399       O411   2.089       .  S
Fe399       O400   2.110       .  S
Fe399       O408   1.956       .  S
O400        C407   1.278       .  A
O401        C415   1.264       .  A
O402        C407   1.266       .  A
O403        C406   1.272       .  A
O404        C416   1.274       .  A
O405        C418   1.273   1_565  A
C406        O411   1.276       .  A
C406       C2821   1.491       .  S
C407       C1429   1.496       .  S
O409        C412   1.266       .  A
O410        C412   1.273       .  A
C412        C973   1.481       .  S
O413        C418   1.265       .  A
O414        C416   1.273       .  A
C415        O417   1.276       .  A
C415        C997   1.470       .  S
C416       C1602   1.499       .  S
C418       C2226   1.491       .  S
Fe419       O435   2.044   1_565  S
Fe419       O425   2.051       .  S
Fe419       O432   2.073       .  S
Fe419       O424   2.029       .  S
Fe419       O430   1.946       .  S
Fe420       O423   2.040       .  S
Fe420       O427   2.072   1_565  S
Fe420       O431   2.048       .  S
Fe420       O436   2.065       .  S
Fe420       O430   1.943       .  S
Fe421       O439   2.104       .  S
Fe421       O426   2.096       .  S
Fe421       O433   2.103       .  S
Fe421       O422   2.106       .  S
Fe421       O430   1.966       .  S
O422        C429   1.276       .  A
O423        C437   1.265       .  A
O424        C429   1.266       .  A
O425        C428   1.268       .  A
O426        C438   1.277       .  A
O427        C440   1.269       .  A
C428        O433   1.278       .  A
C428       C2298   1.493       .  S
C429       C1314   1.484       .  S
O431        C434   1.268       .  A
O432        C434   1.269       .  A
C434       C1050   1.482       .  S
O435        C440   1.264       .  A
O436        C438   1.269       .  A
C437        O439   1.276       .  A
C437       C1002   1.478       .  S
C438       C1117   1.503       .  S
C440       C2106   1.486       .  S
Fe441       O457   2.038   1_566  S
Fe441       O447   2.051       .  S
Fe441       O454   2.068       .  S
Fe441       O446   2.019       .  S
Fe441       O452   1.944       .  S
Fe442       O445   2.033       .  S
Fe442       O449   2.091       .  S
Fe442       O453   2.048   1_554  S
Fe442       O458   2.073       .  S
Fe442       O452   1.941   1_554  S
Fe443       O461   2.108   1_556  S
Fe443       O448   2.088       .  S
Fe443       O455   2.095   1_556  S
Fe443       O444   2.111       .  S
Fe443       O452   1.960       .  S
O444        C451   1.279       .  A
O445        C459   1.266       .  A
O446        C451   1.263       .  A
O447        C450   1.266       .  A
O448        C460   1.274   1_556  A
O449        C462   1.273   1_565  A
C450        O455   1.275   1_556  A
C450       C2946   1.490       .  S
C451       C1914   1.472       .  S
O453        C456   1.266       .  A
O454        C456   1.268       .  A
C456        C930   1.476       .  S
O457        C462   1.264       .  A
O458        C460   1.272       .  A
C459        O461   1.278       .  A
C459        C949   1.473       .  S
C460       C1746   1.506   1_554  S
C462       C2706   1.491       .  S
Fe463       O479   2.044   1_565  S
Fe463       O469   2.069       .  S
Fe463       O476   2.080       .  S
Fe463       O468   2.034       .  S
Fe463       O474   1.940       .  S
Fe464       O467   2.028       .  S
Fe464       O471   2.077       .  S
Fe464       O475   2.043       .  S
Fe464       O480   2.073       .  S
Fe464       O474   1.938       .  S
Fe465       O483   2.113       .  S
Fe465       O470   2.078       .  S
Fe465       O477   2.082       .  S
Fe465       O466   2.113       .  S
Fe465       O474   1.951       .  S
O466        C473   1.280       .  A
O467        C481   1.263       .  A
O468        C473   1.266       .  A
O469        C472   1.271       .  A
O470        C482   1.274       .  A
O471        C484   1.270   1_565  A
C472        O477   1.273       .  A
C472       C2466   1.494       .  S
C473       C1794   1.486       .  S
O475        C478   1.267       .  A
O476        C478   1.271       .  A
C478       C1026   1.482       .  S
O479        C484   1.265       .  A
O480        C482   1.271       .  A
C481        O483   1.278       .  A
C481        C954   1.471       .  S
C482       C1213   1.495       .  S
C484       C2586   1.481       .  S
Fe485       O501   2.052       .  S
Fe485       O491   2.057       .  S
Fe485       O498   2.059       .  S
Fe485       O490   2.045       .  S
Fe485       O496   1.973       .  S
Fe486       O489   2.046       .  S
Fe486       O493   2.077       .  S
Fe486       O497   2.048       .  S
Fe486       O502   2.064       .  S
Fe486       O496   1.974   1_554  S
Fe487       O505   2.106   1_556  S
Fe487       O492   2.083   1_556  S
Fe487       O499   2.092       .  S
Fe487       O488   2.111       .  S
Fe487       O496   1.984       .  S
O488        C495   1.275       .  A
O489        C503   1.267       .  A
O490        C495   1.263       .  A
O491        C494   1.268       .  A
O492        C504   1.272       .  A
O493        C506   1.269       .  A
C494        O499   1.274       .  A
C494       C1525   1.491       .  S
C495        C906   1.486       .  S
O497        C500   1.267   1_554  A
O498        C500   1.267       .  A
C500        C925   1.487       .  S
O501        C506   1.267   1_556  A
O502        C504   1.269       .  A
C503        O505   1.276       .  A
C503       C2394   1.502       .  S
C504       C2682   1.502       .  S
C506       C1770   1.491   1_545  S
Fe507       O523   2.053       .  S
Fe507       O513   2.051       .  S
Fe507       O520   2.065       .  S
Fe507       O512   2.047       .  S
Fe507       O518   1.980       .  S
Fe508       O511   2.038       .  S
Fe508       O515   2.076       .  S
Fe508       O519   2.048       .  S
Fe508       O524   2.062       .  S
Fe508       O518   1.973       .  S
Fe509       O527   2.115       .  S
Fe509       O514   2.085       .  S
Fe509       O521   2.097       .  S
Fe509       O510   2.113       .  S
Fe509       O518   1.985       .  S
O510        C517   1.277       .  A
O511        C525   1.266       .  A
O512        C517   1.265       .  A
O513        C516   1.267       .  A
O514        C526   1.272       .  A
O515        C528   1.269       .  A
C516        O521   1.275       .  A
C516       C2034   1.499       .  S
C517        C901   1.491       .  S
O519        C522   1.266       .  A
O520        C522   1.268       .  A
C522        C978   1.479       .  S
O523        C528   1.266       .  A
O524        C526   1.268       .  A
C525        O527   1.278       .  A
C525       C2274   1.505       .  S
C526       C2202   1.494       .  S
C528       C1621   1.485   1_545  S
Fe529       O545   2.044   1_556  S
Fe529       O535   2.058       .  S
Fe529       O542   2.071       .  S
Fe529       O534   2.029       .  S
Fe529       O540   1.945   1_556  S
Fe530       O533   2.038       .  S
Fe530       O537   2.101       .  S
Fe530       O541   2.049   1_554  S
Fe530       O546   2.091       .  S
Fe530       O540   1.947       .  S
Fe531       O549   2.103       .  S
Fe531       O536   2.074       .  S
Fe531       O543   2.089       .  S
Fe531       O532   2.108   1_554  S
Fe531       O540   1.962       .  S
O532        C539   1.278       .  A
O533        C547   1.266       .  A
O534        C539   1.267       .  A
O535        C538   1.268   1_556  A
O536        C548   1.272       .  A
O537        C550   1.276       .  A
C538        O543   1.273       .  A
C538       C1674   1.493       .  S
C539       C2154   1.490       .  S
O541        C544   1.267       .  A
O542        C544   1.267       .  A
C544        C858   1.485       .  S
O545        C550   1.266       .  A
O546        C548   1.275       .  A
C547        O549   1.276       .  A
C547        C882   1.472       .  S
C548       C2970   1.502       .  S
C550       C1482   1.497       .  S
Fe551       O567   2.052       .  S
Fe551       O557   2.059       .  S
Fe551       O564   2.081       .  S
Fe551       O556   2.028       .  S
Fe551       O562   1.949       .  S
Fe552       O555   2.033       .  S
Fe552       O559   2.082       .  S
Fe552       O563   2.039       .  S
Fe552       O568   2.070       .  S
Fe552       O562   1.940       .  S
Fe553       O571   2.110       .  S
Fe553       O558   2.095       .  S
Fe553       O565   2.096       .  S
Fe553       O554   2.105       .  S
Fe553       O562   1.960       .  S
O554        C561   1.277       .  A
O555        C569   1.265       .  A
O556        C561   1.266       .  A
O557        C560   1.268       .  A
O558        C570   1.275       .  A
O559        C572   1.271       .  A
C560        O565   1.276       .  A
C560       C1290   1.487       .  S
C561       C2058   1.473       .  S
O563        C566   1.266       .  A
O564        C566   1.271       .  A
C566        C834   1.478       .  S
O567        C572   1.266       .  A
O568        C570   1.271       .  A
C569        O571   1.278       .  A
C569        C877   1.472       .  S
C570       C2418   1.506       .  S
C572       C1405   1.489       .  S
Fe573       O589   2.052       .  S
Fe573       O579   2.065       .  S
Fe573       O586   2.070       .  S
Fe573       O578   2.041       .  S
Fe573       O584   1.968   1_556  S
Fe574       O577   2.051       .  S
Fe574       O581   2.088       .  S
Fe574       O585   2.049       .  S
Fe574       O590   2.079       .  S
Fe574       O584   1.968       .  S
Fe575       O593   2.102       .  S
Fe575       O580   2.072       .  S
Fe575       O587   2.091   1_554  S
Fe575       O576   2.105   1_554  S
Fe575       O584   1.978       .  S
O576        C583   1.273       .  A
O577        C591   1.268       .  A
O578        C583   1.261       .  A
O579        C582   1.271       .  A
O580        C592   1.270       .  A
O581        C594   1.270       .  A
C582        O587   1.276       .  A
C582       C2730   1.497       .  S
C583        C805   1.483       .  S
O585        C588   1.268   1_554  A
O586        C588   1.272       .  A
C588        C853   1.489       .  S
O589        C594   1.265   1_556  A
O590        C592   1.271       .  A
C591        O593   1.276       .  A
C591       C1194   1.483       .  S
C592       C1453   1.491       .  S
C594       C2994   1.492       .  S
Fe595       O611   2.052       .  S
Fe595       O601   2.064       .  S
Fe595       O608   2.083       .  S
Fe595       O600   2.042       .  S
Fe595       O606   1.982       .  S
Fe596       O599   2.042       .  S
Fe596       O603   2.071       .  S
Fe596       O607   2.038       .  S
Fe596       O612   2.060       .  S
Fe596       O606   1.971       .  S
Fe597       O615   2.103       .  S
Fe597       O602   2.089       .  S
Fe597       O609   2.098       .  S
Fe597       O598   2.103       .  S
Fe597       O606   1.987       .  S
O598        C605   1.274       .  A
O599        C613   1.264       .  A
O600        C605   1.263       .  A
O601        C604   1.270       .  A
O602        C614   1.274       .  A
O603        C616   1.269       .  A
C604        O609   1.277       .  A
C604       C2178   1.501       .  S
C605        C810   1.483       .  S
O607        C610   1.266       .  A
O608        C610   1.270       .  A
C610        C781   1.494       .  S
O611        C616   1.266       .  A
O612        C614   1.268       .  A
C613        O615   1.276       .  A
C613       C1093   1.498       .  S
C614       C1933   1.500       .  S
C616       C2802   1.479       .  S
Fe617       O633   2.047       .  S
Fe617       O623   2.059       .  S
Fe617       O630   2.082       .  S
Fe617       O622   2.030       .  S
Fe617       O628   1.952       .  S
Fe618       O621   2.035       .  S
Fe618       O625   2.091       .  S
Fe618       O629   2.051       .  S
Fe618       O634   2.081       .  S
Fe618       O628   1.948       .  S
Fe619       O637   2.101       .  S
Fe619       O624   2.085       .  S
Fe619       O631   2.090       .  S
Fe619       O620   2.103       .  S
Fe619       O628   1.966       .  S
O620        C627   1.277       .  A
O621        C635   1.265       .  A
O622        C627   1.267       .  A
O623        C626   1.267       .  A
O624        C636   1.274       .  A
O625        C638   1.274       .  A
C626        O631   1.273       .  A
C626       C1578   1.480       .  S
C627       C2629   1.477       .  S
O629        C632   1.266       .  A
O630        C632   1.271       .  A
C632        C786   1.482       .  S
O633        C638   1.266       .  A
O634        C636   1.273       .  A
C635        O637   1.275       .  A
C635        C757   1.471       .  S
C636       C2773   1.505       .  S
C638       C1957   1.490       .  S
Fe639       O655   2.046       .  S
Fe639       O645   2.067       .  S
Fe639       O652   2.079       .  S
Fe639       O644   2.028       .  S
Fe639       O650   1.941       .  S
Fe640       O643   2.030       .  S
Fe640       O647   2.104       .  S
Fe640       O651   2.039       .  S
Fe640       O656   2.092       .  S
Fe640       O650   1.938       .  S
Fe641       O659   2.113       .  S
Fe641       O646   2.075       .  S
Fe641       O653   2.085       .  S
Fe641       O642   2.111       .  S
Fe641       O650   1.953       .  S
O642        C649   1.279       .  A
O643        C657   1.266       .  A
O644        C649   1.265       .  A
O645        C648   1.270       .  A
O646        C658   1.272       .  A
O647        C660   1.275       .  A
C648        O653   1.274       .  A
C648       C1165   1.493       .  S
C649       C2514   1.481       .  S
O651        C654   1.267       .  A
O652        C654   1.270       .  A
C654        C733   1.485       .  S
O655        C660   1.266       .  A
O656        C658   1.274       .  A
C657        O659   1.279       .  A
C657        C762   1.472       .  S
C658       C2322   1.497       .  S
C660       C1885   1.493       .  S
Fe661       O677   2.054       .  S
Fe661       O667   2.041       .  S
Fe661       O674   2.048       .  S
Fe661       O666   2.049       .  S
Fe661       O672   1.978       .  S
Fe662       O665   2.059       .  S
Fe662       O669   2.068       .  S
Fe662       O673   2.067       .  S
Fe662       O678   2.056       .  S
Fe662       O672   1.974       .  S
Fe663       O681   2.089       .  S
Fe663       O668   2.088       .  S
Fe663       O675   2.098       .  S
Fe663       O664   2.093       .  S
Fe663       O672   1.984       .  S
O664        C671   1.272       .  A
O665        C679   1.269       .  A
O666        C671   1.264       .  A
O667        C670   1.266       .  A
O668        C680   1.271       .  A
O669        C682   1.265       .  A
C670        O675   1.276       .  A
C670       C2130   1.488       .  S
C671        C709   1.484       .  S
O673        C676   1.272       .  A
O674        C676   1.267       .  A
C676        C738   1.476       .  S
O677        C682   1.266       .  A
O678        C680   1.267       .  A
C679        O681   1.274       .  A
C679       C1554   1.479       .  S
C680       C1866   1.504       .  S
C682       C2341   1.489       .  S
Fe683       O699   2.046       .  S
Fe683       O689   2.056       .  S
Fe683       O696   2.063       .  S
Fe683       O688   2.038       .  S
Fe683       O694   1.976       .  S
Fe684       O687   2.045       .  S
Fe684       O691   2.075       .  S
Fe684       O695   2.047       .  S
Fe684       O700   2.067       .  S
Fe684       O694   1.971       .  S
Fe685       O703   2.099       .  S
Fe685       O690   2.082       .  S
Fe685       O697   2.091       .  S
Fe685       O686   2.103       .  S
Fe685       O694   1.982       .  S
O686        C693   1.274       .  A
O687        C701   1.266       .  A
O688        C693   1.262       .  A
O689        C692   1.268       .  A
O690        C702   1.272       .  A
O691        C704   1.269       .  A
C692        O697   1.274       .  A
C692       C2533   1.485       .  S
C693        C714   1.480       .  S
O695        C698   1.267       .  A
O696        C698   1.267       .  A
C698        C829   1.489       .  S
O699        C704   1.265       .  A
O700        C702   1.270       .  A
C701        O703   1.275       .  A
C701       C1650   1.490       .  S
C702       C1381   1.504       .  S
C704       C2442   1.486       .  S
C705        C706   1.413       .  A
C705        C710   1.403       .  A
C705        C719   1.445       .  S
C706        C711   1.495       .  S
C706        C707   1.406       .  A
C707        C708   1.407       .  A
C707        H726   1.084       .  S
C708        C709   1.413       .  A
C708        C720   1.444       .  S
C709        C710   1.405       .  A
C710        H725   1.085       .  S
C711        C712   1.405       .  A
C711        C716   1.413       .  A
C712        C713   1.406       .  A
C712        H727   1.084       .  S
C713        C714   1.412       .  A
C713        C717   1.444       .  S
C714        C715   1.404       .  A
C715        C716   1.404       .  A
C715        H728   1.085       .  S
C716        C718   1.444       .  S
C717        N721   1.157       .  T
C718        N722   1.157       .  T
C719        N724   1.157       .  T
C720        N723   1.157       .  T
C729        C730   1.411       .  A
C729        C734   1.391       .  A
C729        C743   1.447       .  S
C730        C735   1.476       .  S
C730        C731   1.400       .  A
C731        C732   1.400       .  A
C731        H750   1.085       .  S
C732        C733   1.420       .  A
C732        C744   1.444       .  S
C733        C734   1.406       .  A
C734        H749   1.084       .  S
C735        C736   1.401       .  A
C735        C740   1.407       .  A
C736        C737   1.395       .  A
C736        H751   1.085       .  S
C737        C738   1.412       .  A
C737        C741   1.442       .  S
C738        C739   1.407       .  A
C739        C740   1.396       .  A
C739        H752   1.085       .  S
C740        C742   1.444       .  S
C741        N745   1.156       .  T
C742        N746   1.157       .  T
C743        N748   1.157       .  T
C744        N747   1.157       .  T
C753        C754   1.415       .  A
C753        C758   1.398       .  A
C753        C767   1.445       .  S
C754        C759   1.489       .  S
C754        C755   1.404       .  A
C755        C756   1.404       .  A
C755        H774   1.084       .  S
C756        C757   1.411       .  A
C756        C768   1.444       .  S
C757        C758   1.401       .  A
C758        H773   1.085       .  S
C759        C760   1.405       .  A
C759        C764   1.411       .  A
C760        C761   1.397       .  A
C760        H775   1.085       .  S
C761        C762   1.408       .  A
C761        C765   1.444       .  S
C762        C763   1.405       .  A
C763        C764   1.405       .  A
C763        H776   1.085       .  S
C764        C766   1.443       .  S
C765        N769   1.157       .  T
C766        N770   1.157       .  T
C767        N772   1.157       .  T
C768        N771   1.157       .  T
C777        C778   1.408       .  A
C777        C782   1.391       .  A
C777        C791   1.447       .  S
C778        C783   1.483       .  S
C778        C779   1.404       .  A
C779        C780   1.407       .  A
C779        H798   1.084       .  S
C780        C781   1.419       .  A
C780        C792   1.443       .  S
C781        C782   1.410       .  A
C782        H797   1.084       .  S
C783        C784   1.402       .  A
C783        C788   1.410       .  A
C784        C785   1.400       .  A
C784        H799   1.085       .  S
C785        C786   1.414       .  A
C785        C789   1.445       .  S
C786        C787   1.406       .  A
C787        C788   1.400       .  A
C787        H800   1.085       .  S
C788        C790   1.444       .  S
C789        N793   1.157       .  T
C790        N794   1.157       .  T
C791        N796   1.157       .  T
C792        N795   1.157       .  T
C801        C802   1.419       .  A
C801        C806   1.407       .  A
C801        C815   1.444       .  S
C802        C807   1.506       .  S
C802        C803   1.407       .  A
C803        C804   1.405       .  A
C803        H822   1.085       .  S
C804        C805   1.412       .  A
C804        C816   1.445       .  S
C805        C806   1.402       .  A
C806        H821   1.085       .  S
C807        C808   1.409       .  A
C807        C812   1.418       .  A
C808        C809   1.408       .  A
C808        H823   1.084       .  S
C809        C810   1.412       .  A
C809        C813   1.443       .  S
C810        C811   1.402       .  A
C811        C812   1.403       .  A
C811        H824   1.085       .  S
C812        C814   1.445       .  S
C813        N817   1.157       .  T
C814        N818   1.157       .  T
C815        N820   1.157       .  T
C816        N819   1.157       .  T
C825        C826   1.410       .  A
C825        C830   1.393       .  A
C825        C839   1.446       .  S
C826        C831   1.478       .  S
C826        C827   1.401       .  A
C827        C828   1.401       .  A
C827        H846   1.085       .  S
C828        C829   1.420       .  A
C828        C840   1.444       .  S
C829        C830   1.408       .  A
C830        H845   1.085       .  S
C831        C832   1.401       .  A
C831        C836   1.409       .  A
C832        C833   1.395       .  A
C832        H847   1.085       .  S
C833        C834   1.415       .  A
C833        C837   1.446       .  S
C834        C835   1.407       .  A
C835        C836   1.399       .  A
C835        H848   1.085       .  S
C836        C838   1.444       .  S
C837        N841   1.158       .  T
C838        N842   1.157       .  T
C839        N844   1.157       .  T
C840        N843   1.157       .  T
C849        C850   1.406   1_655  A
C849        C854   1.399       .  A
C849        C863   1.443       .  S
C850        C855   1.479       .  S
C850        C851   1.400       .  A
C851        C852   1.395   1_455  A
C851        H870   1.085       .  S
C852        C853   1.420       .  A
C852        C864   1.445   1_556  S
C853        C854   1.410       .  A
C854        H869   1.084       .  S
C855        C856   1.400       .  A
C855        C860   1.411       .  A
C856        C857   1.400       .  A
C856        H871   1.085       .  S
C857        C858   1.419       .  A
C857        C861   1.445       .  S
C858        C859   1.405       .  A
C859        C860   1.395       .  A
C859        H872   1.085       .  S
C860        C862   1.446       .  S
C861        N865   1.157       .  T
C862        N866   1.157   1_455  T
C863        N868   1.157       .  T
C864        N867   1.157       .  T
C873        C874   1.414       .  A
C873        C878   1.399       .  A
C873        C887   1.445       .  S
C874        C879   1.489       .  S
C874        C875   1.403       .  A
C875        C876   1.404       .  A
C875        H894   1.084       .  S
C876        C877   1.413       .  A
C876        C888   1.444       .  S
C877        C878   1.401       .  A
C878        H893   1.085       .  S
C879        C880   1.405       .  A
C879        C884   1.411       .  A
C880        C881   1.398       .  A
C880        H895   1.085       .  S
C881        C882   1.409       .  A
C881        C885   1.445       .  S
C882        C883   1.404       .  A
C883        C884   1.404       .  A
C883        H896   1.085       .  S
C884        C886   1.443       .  S
C885        N889   1.157       .  T
C886        N890   1.157       .  T
C887        N892   1.157       .  T
C888        N891   1.157       .  T
C897        C898   1.415       .  A
C897        C902   1.412       .  A
C897        C911   1.443       .  S
C898        C903   1.502       .  S
C898        C899   1.405       .  A
C899        C900   1.403       .  A
C899        H918   1.085       .  S
C900        C901   1.414       .  A
C900        C912   1.445       .  S
C901        C902   1.407       .  A
C902        H917   1.085       .  S
C903        C904   1.407       .  A
C903        C908   1.414       .  A
C904        C905   1.409       .  A
C904        H919   1.084       .  S
C905        C906   1.411       .  A
C905        C909   1.443       .  S
C906        C907   1.405       .  A
C907        C908   1.407       .  A
C907        H920   1.085       .  S
C908        C910   1.443       .  S
C909        N913   1.157       .  T
C910        N914   1.157       .  T
C911        N916   1.157       .  T
C912        N915   1.157       .  T
C921        C922   1.410       .  A
C921        C926   1.392       .  A
C921        C935   1.447       .  S
C922        C927   1.474       .  S
C922        C923   1.399       .  A
C923        C924   1.401       .  A
C923        H942   1.085       .  S
C924        C925   1.420       .  A
C924        C936   1.444       .  S
C925        C926   1.407       .  A
C926        H941   1.084   1_556  S
C927        C928   1.401   1_545  A
C927        C932   1.406       .  A
C928        C929   1.397       .  A
C928        H943   1.085       .  S
C929        C930   1.413       .  A
C929        C933   1.445       .  S
C930        C931   1.407   1_565  A
C931        C932   1.396       .  A
C931        H944   1.084       .  S
C932        C934   1.444       .  S
C933        N937   1.158       .  T
C934        N938   1.157       .  T
C935        N940   1.157   1_556  T
C936        N939   1.157       .  T
C945        C946   1.414       .  A
C945        C950   1.398       .  A
C945        C959   1.445       .  S
C946        C951   1.490       .  S
C946        C947   1.404       .  A
C947        C948   1.405       .  A
C947        H966   1.084       .  S
C948        C949   1.413       .  A
C948        C960   1.444       .  S
C949        C950   1.401       .  A
C950        H965   1.085       .  S
C951        C952   1.405       .  A
C951        C956   1.411       .  A
C952        C953   1.399       .  A
C952        H967   1.085       .  S
C953        C954   1.410       .  A
C953        C957   1.445       .  S
C954        C955   1.404       .  A
C955        C956   1.404       .  A
C955        H968   1.085       .  S
C956        C958   1.443       .  S
C957        N961   1.157       .  T
C958        N962   1.157       .  T
C959        N964   1.157       .  T
C960        N963   1.157       .  T
C969        C970   1.407   1_565  A
C969        C974   1.389       .  A
C969        C983   1.447       .  S
C970        C975   1.473       .  S
C970        C971   1.402       .  A
C971        C972   1.405       .  A
C971        H990   1.084       .  S
C972        C973   1.416   1_545  A
C972        C984   1.444       .  S
C973        C974   1.405       .  A
C974        H989   1.085       .  S
C975        C976   1.400       .  A
C975        C980   1.408       .  A
C976        C977   1.397       .  A
C976        H991   1.085       .  S
C977        C978   1.416       .  A
C977        C981   1.446       .  S
C978        C979   1.406       .  A
C979        C980   1.398       .  A
C979        H992   1.085       .  S
C980        C982   1.444   1_545  S
C981        N985   1.158       .  T
C982        N986   1.157       .  T
C983        N988   1.157       .  T
C984        N987   1.157       .  T
C993        C994   1.411       .  A
C993        C998   1.404       .  A
C993       C1007   1.443       .  S
C994        C999   1.490       .  S
C994        C995   1.406       .  A
C995        C996   1.399       .  A
C995       H1014   1.085       .  S
C996        C997   1.407       .  A
C996       C1008   1.444       .  S
C997        C998   1.404       .  A
C998       H1013   1.084       .  S
C999       C1000   1.403       .  A
C999       C1004   1.414       .  A
C1000      C1001   1.404       .  A
C1000      H1015   1.084       .  S
C1001      C1002   1.414       .  A
C1001      C1005   1.444       .  S
C1002      C1003   1.403       .  A
C1003      C1004   1.399       .  A
C1003      H1016   1.085       .  S
C1004      C1006   1.445       .  S
C1005      N1009   1.157       .  T
C1006      N1010   1.157       .  T
C1007      N1012   1.157       .  T
C1008      N1011   1.157       .  T
C1017      C1018   1.408       .  A
C1017      C1022   1.396       .  A
C1017      C1031   1.444   1_545  S
C1018      C1023   1.473       .  S
C1018      C1019   1.401       .  A
C1019      C1020   1.397       .  A
C1019      H1038   1.085       .  S
C1020      C1021   1.411       .  A
C1020      C1032   1.444       .  S
C1021      C1022   1.405       .  A
C1022      H1037   1.085       .  S
C1023      C1024   1.399       .  A
C1023      C1028   1.410   1_545  A
C1024      C1025   1.401       .  A
C1024      H1039   1.084       .  S
C1025      C1026   1.418   1_545  A
C1025      C1029   1.444       .  S
C1026      C1027   1.406       .  A
C1027      C1028   1.392       .  A
C1027      H1040   1.084       .  S
C1028      C1030   1.447       .  S
C1029      N1033   1.157       .  T
C1030      N1034   1.158       .  T
C1031      N1036   1.157       .  T
C1032      N1035   1.157       .  T
C1041      C1042   1.407   1_655  A
C1041      C1046   1.403       .  A
C1041      C1055   1.444       .  S
C1042      C1047   1.480       .  S
C1042      C1043   1.399       .  A
C1043      C1044   1.393   1_455  A
C1043      H1062   1.086       .  S
C1044      C1045   1.420       .  A
C1044      C1056   1.444       .  S
C1045      C1046   1.412       .  A
C1046      H1061   1.084       .  S
C1047      C1048   1.402       .  A
C1047      C1052   1.411   1_545  A
C1048      C1049   1.400       .  A
C1048      H1063   1.085       .  S
C1049      C1050   1.417   1_545  A
C1049      C1053   1.445       .  S
C1050      C1051   1.405       .  A
C1051      C1052   1.396       .  A
C1051      H1064   1.085       .  S
C1052      C1054   1.445       .  S
C1053      N1057   1.158       .  T
C1054      N1058   1.157   1_455  T
C1055      N1060   1.157       .  T
C1056      N1059   1.157       .  T
C1065      C1066   1.413       .  A
C1065      C1070   1.411       .  A
C1065      C1079   1.443       .  S
C1066      C1071   1.500       .  S
C1066      C1067   1.405       .  A
C1067      C1068   1.405       .  A
C1067      H1086   1.085       .  S
C1068      C1069   1.414       .  A
C1068      C1080   1.445       .  S
C1069      C1070   1.406       .  A
C1070      H1085   1.084       .  S
C1071      C1072   1.405       .  A
C1071      C1076   1.413       .  A
C1072      C1073   1.406       .  A
C1072      H1087   1.085       .  S
C1073      C1074   1.414       .  A
C1073      C1077   1.444       .  S
C1074      C1075   1.406       .  A
C1075      C1076   1.410       .  A
C1075      H1088   1.085       .  S
C1076      C1078   1.443       .  S
C1077      N1081   1.157       .  T
C1078      N1082   1.157       .  T
C1079      N1084   1.157       .  T
C1080      N1083   1.157       .  T
C1089      C1090   1.414       .  A
C1089      C1094   1.408       .  A
C1089      C1103   1.443       .  S
C1090      C1095   1.497       .  S
C1090      C1091   1.401       .  A
C1091      C1092   1.401       .  A
C1091      H1110   1.085       .  S
C1092      C1093   1.421       .  A
C1092      C1104   1.446       .  S
C1093      C1094   1.408       .  A
C1094      H1109   1.084       .  S
C1095      C1096   1.408       .  A
C1095      C1100   1.411       .  A
C1096      C1097   1.410       .  A
C1096      H1111   1.085       .  S
C1097      C1098   1.417       .  A
C1097      C1101   1.443       .  S
C1098      C1099   1.411       .  A
C1099      C1100   1.399       .  A
C1099      H1112   1.085       .  S
C1100      C1102   1.445       .  S
C1101      N1105   1.157       .  T
C1102      N1106   1.157       .  T
C1103      N1108   1.157       .  T
C1104      N1107   1.158       .  T
C1113      C1114   1.410       .  A
C1113      C1118   1.409       .  A
C1113      C1127   1.442       .  S
C1114      C1119   1.493       .  S
C1114      C1115   1.398       .  A
C1115      C1116   1.401       .  A
C1115      H1134   1.085       .  S
C1116      C1117   1.425       .  A
C1116      C1128   1.446       .  S
C1117      C1118   1.410       .  A
C1118      H1133   1.084       .  S
C1119      C1120   1.405       .  A
C1119      C1124   1.408       .  A
C1120      C1121   1.410       .  A
C1120      H1135   1.084       .  S
C1121      C1122   1.418   1_455  A
C1121      C1125   1.443       .  S
C1122      C1123   1.410   1_655  A
C1123      C1124   1.401       .  A
C1123      H1136   1.085   1_455  S
C1124      C1126   1.444       .  S
C1125      N1129   1.157       .  T
C1126      N1130   1.157       .  T
C1127      N1132   1.157       .  T
C1128      N1131   1.158       .  T
C1137      C1138   1.409       .  A
C1137      C1142   1.398       .  A
C1137      C1151   1.446       .  S
C1138      C1143   1.480       .  S
C1138      C1139   1.399       .  A
C1139      C1140   1.402       .  A
C1139      H1158   1.085       .  S
C1140      C1141   1.420       .  A
C1140      C1152   1.444       .  S
C1141      C1142   1.408       .  A
C1142      H1157   1.085       .  S
C1143      C1144   1.401       .  A
C1143      C1148   1.408       .  A
C1144      C1145   1.398       .  A
C1144      H1159   1.085       .  S
C1145      C1146   1.415       .  A
C1145      C1149   1.445       .  S
C1146      C1147   1.407       .  A
C1147      C1148   1.400       .  A
C1147      H1160   1.084       .  S
C1148      C1150   1.443       .  S
C1149      N1153   1.158       .  T
C1150      N1154   1.157       .  T
C1151      N1156   1.157       .  T
C1152      N1155   1.157       .  T
C1161      C1162   1.410       .  A
C1161      C1166   1.399       .  A
C1161      C1175   1.445       .  S
C1162      C1167   1.492       .  S
C1162      C1163   1.406       .  A
C1163      C1164   1.409       .  A
C1163      H1182   1.084       .  S
C1164      C1165   1.415       .  A
C1164      C1176   1.443       .  S
C1165      C1166   1.408       .  A
C1166      H1181   1.085       .  S
C1167      C1168   1.400       .  A
C1167      C1172   1.411       .  A
C1168      C1169   1.402       .  A
C1168      H1183   1.085       .  S
C1169      C1170   1.422       .  A
C1169      C1173   1.445       .  S
C1170      C1171   1.409       .  A
C1171      C1172   1.407       .  A
C1171      H1184   1.084       .  S
C1172      C1174   1.443       .  S
C1173      N1177   1.157       .  T
C1174      N1178   1.157       .  T
C1175      N1180   1.157       .  T
C1176      N1179   1.157       .  T
C1185      C1186   1.413       .  A
C1185      C1190   1.410       .  A
C1185      C1199   1.443       .  S
C1186      C1191   1.491       .  S
C1186      C1187   1.402       .  A
C1187      C1188   1.397       .  A
C1187      H1206   1.085       .  S
C1188      C1189   1.412       .  A
C1188      C1200   1.446       .  S
C1189      C1190   1.405       .  A
C1190      H1205   1.084       .  S
C1191      C1192   1.405       .  A
C1191      C1196   1.411       .  A
C1192      C1193   1.405       .  A
C1192      H1207   1.085       .  S
C1193      C1194   1.414       .  A
C1193      C1197   1.444       .  S
C1194      C1195   1.404       .  A
C1195      C1196   1.402       .  A
C1195      H1208   1.085       .  S
C1196      C1198   1.444       .  S
C1197      N1201   1.157       .  T
C1198      N1202   1.157       .  T
C1199      N1204   1.157       .  T
C1200      N1203   1.157       .  T
C1209      C1210   1.413       .  A
C1209      C1214   1.405       .  A
C1209      C1223   1.443       .  S
C1210      C1215   1.495       .  S
C1210      C1211   1.402       .  A
C1211      C1212   1.402       .  A
C1211      H1230   1.085       .  S
C1212      C1213   1.421       .  A
C1212      C1224   1.445       .  S
C1213      C1214   1.407       .  A
C1214      H1229   1.084       .  S
C1215      C1216   1.407       .  A
C1215      C1220   1.411       .  A
C1216      C1217   1.408       .  A
C1216      H1231   1.084       .  S
C1217      C1218   1.416       .  A
C1217      C1221   1.443       .  S
C1218      C1219   1.408       .  A
C1219      C1220   1.400       .  A
C1219      H1232   1.085       .  S
C1220      C1222   1.445       .  S
C1221      N1225   1.157       .  T
C1222      N1226   1.157       .  T
C1223      N1228   1.157       .  T
C1224      N1227   1.158       .  T
C1233      C1234   1.410       .  A
C1233      C1238   1.400       .  A
C1233      C1247   1.444       .  S
C1234      C1239   1.481       .  S
C1234      C1235   1.402       .  A
C1235      C1236   1.397       .  A
C1235      H1254   1.085       .  S
C1236      C1237   1.413       .  A
C1236      C1248   1.445       .  S
C1237      C1238   1.405       .  A
C1238      H1253   1.085       .  S
C1239      C1240   1.402       .  A
C1239      C1244   1.410       .  A
C1240      C1241   1.402       .  A
C1240      H1255   1.085       .  S
C1241      C1242   1.418       .  A
C1241      C1245   1.444       .  S
C1242      C1243   1.405       .  A
C1243      C1244   1.395       .  A
C1243      H1256   1.085       .  S
C1244      C1246   1.445       .  S
C1245      N1249   1.157   1_565  T
C1246      N1250   1.157       .  T
C1247      N1252   1.157       .  T
C1248      N1251   1.157       .  T
C1257      C1258   1.412       .  A
C1257      C1262   1.403       .  A
C1257      C1271   1.444       .  S
C1258      C1263   1.497       .  S
C1258      C1259   1.406       .  A
C1259      C1260   1.410       .  A
C1259      H1278   1.085       .  S
C1260      C1261   1.414       .  A
C1260      C1272   1.442       .  S
C1261      C1262   1.405       .  A
C1262      H1277   1.085       .  S
C1263      C1264   1.406       .  A
C1263      C1268   1.413       .  A
C1264      C1265   1.408       .  A
C1264      H1279   1.084       .  S
C1265      C1266   1.414       .  A
C1265      C1269   1.444       .  S
C1266      C1267   1.405       .  A
C1267      C1268   1.405       .  A
C1267      H1280   1.085       .  S
C1268      C1270   1.444       .  S
C1269      N1273   1.157       .  T
C1270      N1274   1.157       .  T
C1271      N1276   1.157       .  T
C1272      N1275   1.157       .  T
C1281      C1282   1.410       .  A
C1281      C1286   1.407       .  A
C1281      C1295   1.443       .  S
C1282      C1287   1.492       .  S
C1282      C1283   1.399       .  A
C1283      C1284   1.400       .  A
C1283      H1302   1.086       .  S
C1284      C1285   1.425       .  A
C1284      C1296   1.445       .  S
C1285      C1286   1.411       .  A
C1286      H1301   1.084       .  S
C1287      C1288   1.407       .  A
C1287      C1292   1.410       .  A
C1288      C1289   1.408   1_655  A
C1288      H1303   1.084       .  S
C1289      C1290   1.411       .  A
C1289      C1293   1.443       .  S
C1290      C1291   1.407       .  A
C1291      C1292   1.401   1_455  A
C1291      H1304   1.084       .  S
C1292      C1294   1.445       .  S
C1293      N1297   1.157       .  T
C1294      N1298   1.157       .  T
C1295      N1300   1.157       .  T
C1296      N1299   1.158       .  T
C1305      C1306   1.408       .  A
C1305      C1310   1.393       .  A
C1305      C1319   1.446       .  S
C1306      C1311   1.485       .  S
C1306      C1307   1.407       .  A
C1307      C1308   1.407       .  A
C1307      H1326   1.084       .  S
C1308      C1309   1.414       .  A
C1308      C1320   1.443       .  S
C1309      C1310   1.408       .  A
C1310      H1325   1.085       .  S
C1311      C1312   1.409       .  A
C1311      C1316   1.406       .  A
C1312      C1313   1.407       .  A
C1312      H1327   1.085       .  S
C1313      C1314   1.412       .  A
C1313      C1317   1.443       .  S
C1314      C1315   1.407       .  A
C1315      C1316   1.393       .  A
C1315      H1328   1.085       .  S
C1316      C1318   1.445       .  S
C1317      N1321   1.157       .  T
C1318      N1322   1.157       .  T
C1319      N1324   1.157       .  T
C1320      N1323   1.157       .  T
C1329      C1330   1.416       .  A
C1329      C1334   1.413       .  A
C1329      C1343   1.443       .  S
C1330      C1335   1.502       .  S
C1330      C1331   1.401       .  A
C1331      C1332   1.398       .  A
C1331      H1350   1.085   1_545  S
C1332      C1333   1.420   1_455  A
C1332      C1344   1.445   1_455  S
C1333      C1334   1.409   1_655  A
C1334      H1349   1.084       .  S
C1335      C1336   1.407       .  A
C1335      C1340   1.415   1_545  A
C1336      C1337   1.405   1_545  A
C1336      H1351   1.085       .  S
C1337      C1338   1.416       .  A
C1337      C1341   1.444       .  S
C1338      C1339   1.409       .  A
C1339      C1340   1.407       .  A
C1339      H1352   1.085       .  S
C1340      C1342   1.444       .  S
C1341      N1345   1.157       .  T
C1342      N1346   1.157   1_565  T
C1343      N1348   1.157       .  T
C1344      N1347   1.157       .  T
C1353      C1354   1.409       .  A
C1353      C1358   1.396       .  A
C1353      C1367   1.444       .  S
C1354      C1359   1.477       .  S
C1354      C1355   1.398       .  A
C1355      C1356   1.395       .  A
C1355      H1374   1.102       .  S
C1356      C1357   1.419       .  A
C1356      C1368   1.446       .  S
C1357      C1358   1.405       .  A
C1358      H1373   1.096       .  S
C1359      C1360   1.402   1_455  A
C1359      C1364   1.410   1_455  A
C1360      C1361   1.402       .  A
C1360      H1375   1.078       .  S
C1361      C1362   1.416       .  A
C1361      C1365   1.444       .  S
C1362      C1363   1.405       .  A
C1363      C1364   1.392       .  A
C1363      H1376   1.080       .  S
C1364      C1366   1.446   1_655  S
C1365      N1369   1.157       .  T
C1366      N1370   1.157       .  T
C1367      N1372   1.157       .  T
C1368      N1371   1.158       .  T
C1377      C1378   1.409       .  A
C1377      C1382   1.400       .  A
C1377      C1391   1.445       .  S
C1378      C1383   1.491       .  S
C1378      C1379   1.403       .  A
C1379      C1380   1.408       .  A
C1379      H1398   1.085       .  S
C1380      C1381   1.421       .  A
C1380      C1392   1.443       .  S
C1381      C1382   1.412       .  A
C1382      H1397   1.084       .  S
C1383      C1384   1.401       .  A
C1383      C1388   1.412       .  A
C1384      C1385   1.401       .  A
C1384      H1399   1.085       .  S
C1385      C1386   1.417       .  A
C1385      C1389   1.445       .  S
C1386      C1387   1.406       .  A
C1387      C1388   1.405       .  A
C1387      H1400   1.085       .  S
C1388      C1390   1.443       .  S
C1389      N1393   1.157       .  T
C1390      N1394   1.157       .  T
C1391      N1396   1.157       .  T
C1392      N1395   1.157       .  T
C1401      C1402   1.409       .  A
C1401      C1406   1.401       .  A
C1401      C1415   1.444       .  S
C1402      C1407   1.484       .  S
C1402      C1403   1.402       .  A
C1403      C1404   1.402       .  A
C1403      H1422   1.080       .  S
C1404      C1405   1.417       .  A
C1404      C1416   1.445       .  S
C1405      C1406   1.409       .  A
C1406      H1421   1.080       .  S
C1407      C1408   1.405       .  A
C1407      C1412   1.409       .  A
C1408      C1409   1.408       .  A
C1408      H1423   1.084       .  S
C1409      C1410   1.415       .  A
C1409      C1413   1.443       .  S
C1410      C1411   1.407       .  A
C1411      C1412   1.392       .  A
C1411      H1424   1.087       .  S
C1412      C1414   1.446       .  S
C1413      N1417   1.157       .  T
C1414      N1418   1.157       .  T
C1415      N1420   1.157       .  T
C1416      N1419   1.158       .  T
C1425      C1426   1.406       .  A
C1425      C1430   1.397       .  A
C1425      C1439   1.445       .  S
C1426      C1431   1.488       .  S
C1426      C1427   1.406       .  A
C1427      C1428   1.406       .  A
C1427      H1446   1.085       .  S
C1428      C1429   1.417       .  A
C1428      C1440   1.443       .  S
C1429      C1430   1.412       .  A
C1430      H1445   1.084       .  S
C1431      C1432   1.406       .  A
C1431      C1436   1.407       .  A
C1432      C1433   1.406       .  A
C1432      H1447   1.084       .  S
C1433      C1434   1.415       .  A
C1433      C1437   1.443       .  S
C1434      C1435   1.410       .  A
C1435      C1436   1.397       .  A
C1435      H1448   1.085       .  S
C1436      C1438   1.445       .  S
C1437      N1441   1.157       .  T
C1438      N1442   1.157       .  T
C1439      N1444   1.157       .  T
C1440      N1443   1.157       .  T
C1449      C1450   1.412   1_556  A
C1449      C1454   1.405       .  A
C1449      C1463   1.444       .  S
C1450      C1455   1.495       .  S
C1450      C1451   1.405       .  A
C1451      C1452   1.403       .  A
C1451      H1470   1.085       .  S
C1452      C1453   1.415       .  A
C1452      C1464   1.444       .  S
C1453      C1454   1.406   1_554  A
C1454      H1469   1.084       .  S
C1455      C1456   1.410       .  A
C1455      C1460   1.411   1_655  A
C1456      C1457   1.411   1_655  A
C1456      H1471   1.084       .  S
C1457      C1458   1.411       .  A
C1457      C1461   1.442       .  S
C1458      C1459   1.405       .  A
C1459      C1460   1.396       .  A
C1459      H1472   1.085       .  S
C1460      C1462   1.445       .  S
C1461      N1465   1.157   1_554  T
C1462      N1466   1.157       .  T
C1463      N1468   1.157       .  T
C1464      N1467   1.157       .  T
C1473      C1474   1.412       .  A
C1473      C1478   1.396       .  A
C1473      C1487   1.445       .  S
C1474      C1479   1.490       .  S
C1474      C1475   1.406       .  A
C1475      C1476   1.404       .  A
C1475      H1494   1.085       .  S
C1476      C1477   1.417       .  A
C1476      C1488   1.444       .  S
C1477      C1478   1.408       .  A
C1478      H1493   1.085       .  S
C1479      C1480   1.400       .  A
C1479      C1484   1.410       .  A
C1480      C1481   1.398       .  A
C1480      H1495   1.085       .  S
C1481      C1482   1.422       .  A
C1481      C1485   1.445       .  S
C1482      C1483   1.411       .  A
C1483      C1484   1.405       .  A
C1483      H1496   1.084       .  S
C1484      C1486   1.444       .  S
C1485      N1489   1.158       .  T
C1486      N1490   1.157       .  T
C1487      N1492   1.157       .  T
C1488      N1491   1.158       .  T
C1497      C1498   1.411       .  A
C1497      C1502   1.406       .  A
C1497      C1511   1.443       .  S
C1498      C1503   1.490       .  S
C1498      C1499   1.404       .  A
C1499      C1500   1.398       .  A
C1499      H1518   1.085       .  S
C1500      C1501   1.411       .  A
C1500      C1512   1.445       .  S
C1501      C1502   1.406       .  A
C1502      H1517   1.085       .  S
C1503      C1504   1.404       .  A
C1503      C1508   1.413       .  A
C1504      C1505   1.405       .  A
C1504      H1519   1.084       .  S
C1505      C1506   1.412       .  A
C1505      C1509   1.444       .  S
C1506      C1507   1.402       .  A
C1507      C1508   1.400       .  A
C1507      H1520   1.085       .  S
C1508      C1510   1.445       .  S
C1509      N1513   1.157       .  T
C1510      N1514   1.157       .  T
C1511      N1516   1.157       .  T
C1512      N1515   1.157       .  T
C1521      C1522   1.411   1_554  A
C1521      C1526   1.408       .  A
C1521      C1535   1.443       .  S
C1522      C1527   1.491       .  S
C1522      C1523   1.401       .  A
C1523      C1524   1.402       .  A
C1523      H1542   1.085       .  S
C1524      C1525   1.417       .  A
C1524      C1536   1.444       .  S
C1525      C1526   1.407   1_556  A
C1526      H1541   1.084       .  S
C1527      C1528   1.404       .  A
C1527      C1532   1.408   1_545  A
C1528      C1529   1.411   1_545  A
C1528      H1543   1.084       .  S
C1529      C1530   1.419       .  A
C1529      C1533   1.443       .  S
C1530      C1531   1.410   1_556  A
C1531      C1532   1.399   1_554  A
C1531      H1544   1.085       .  S
C1532      C1534   1.445   1_556  S
C1533      N1537   1.157   1_565  T
C1534      N1538   1.157       .  T
C1535      N1540   1.157       .  T
C1536      N1539   1.157       .  T
C1545      C1546   1.413       .  A
C1545      C1550   1.410       .  A
C1545      C1559   1.442       .  S
C1546      C1551   1.491       .  S
C1546      C1547   1.401       .  A
C1547      C1548   1.396       .  A
C1547      H1566   1.085       .  S
C1548      C1549   1.413       .  A
C1548      C1560   1.446       .  S
C1549      C1550   1.405       .  A
C1550      H1565   1.084       .  S
C1551      C1552   1.406       .  A
C1551      C1556   1.412       .  A
C1552      C1553   1.406       .  A
C1552      H1567   1.085       .  S
C1553      C1554   1.411       .  A
C1553      C1557   1.444       .  S
C1554      C1555   1.403       .  A
C1555      C1556   1.402       .  A
C1555      H1568   1.085       .  S
C1556      C1558   1.444       .  S
C1557      N1561   1.157       .  T
C1558      N1562   1.157       .  T
C1559      N1564   1.157       .  T
C1560      N1563   1.157       .  T
C1569      C1570   1.410       .  A
C1569      C1574   1.396       .  A
C1569      C1583   1.445       .  S
C1570      C1575   1.487       .  S
C1570      C1571   1.405       .  A
C1571      C1572   1.409       .  A
C1571      H1590   1.085       .  S
C1572      C1573   1.416       .  A
C1572      C1584   1.443       .  S
C1573      C1574   1.404       .  A
C1574      H1589   1.085       .  S
C1575      C1576   1.400       .  A
C1575      C1580   1.412       .  A
C1576      C1577   1.398       .  A
C1576      H1591   1.085       .  S
C1577      C1578   1.413       .  A
C1577      C1581   1.444       .  S
C1578      C1579   1.404       .  A
C1579      C1580   1.407       .  A
C1579      H1592   1.085       .  S
C1580      C1582   1.443       .  S
C1581      N1585   1.157       .  T
C1582      N1586   1.157       .  T
C1583      N1588   1.157       .  T
C1584      N1587   1.157       .  T
C1593      C1594   1.410       .  A
C1593      C1598   1.401       .  A
C1593      C1607   1.445       .  S
C1594      C1599   1.497       .  S
C1594      C1595   1.406       .  A
C1595      C1596   1.410       .  A
C1595      H1614   1.084       .  S
C1596      C1597   1.418       .  A
C1596      C1608   1.443       .  S
C1597      C1598   1.410       .  A
C1598      H1613   1.084       .  S
C1599      C1600   1.401       .  A
C1599      C1604   1.413       .  A
C1600      C1601   1.403       .  A
C1600      H1615   1.085       .  S
C1601      C1602   1.420       .  A
C1601      C1605   1.444       .  S
C1602      C1603   1.409       .  A
C1603      C1604   1.408       .  A
C1603      H1616   1.084       .  S
C1604      C1606   1.443       .  S
C1605      N1609   1.157       .  T
C1606      N1610   1.157       .  T
C1607      N1612   1.157       .  T
C1608      N1611   1.157       .  T
C1617      C1618   1.410       .  A
C1617      C1622   1.402       .  A
C1617      C1631   1.444       .  S
C1618      C1623   1.485       .  S
C1618      C1619   1.402       .  A
C1619      C1620   1.399       .  A
C1619      H1638   1.085       .  S
C1620      C1621   1.416       .  A
C1620      C1632   1.445       .  S
C1621      C1622   1.407       .  A
C1622      H1637   1.084       .  S
C1623      C1624   1.404       .  A
C1623      C1628   1.412       .  A
C1624      C1625   1.404       .  A
C1624      H1639   1.085       .  S
C1625      C1626   1.415       .  A
C1625      C1629   1.444       .  S
C1626      C1627   1.404       .  A
C1627      C1628   1.396       .  A
C1627      H1640   1.085       .  S
C1628      C1630   1.445       .  S
C1629      N1633   1.157       .  T
C1630      N1634   1.157       .  T
C1631      N1636   1.157       .  T
C1632      N1635   1.157       .  T
C1641      C1642   1.408       .  A
C1641      C1646   1.397       .  A
C1641      C1655   1.446       .  S
C1642      C1647   1.490       .  S
C1642      C1643   1.404       .  A
C1643      C1644   1.410       .  A
C1643      H1662   1.084       .  S
C1644      C1645   1.419       .  A
C1644      C1656   1.443       .  S
C1645      C1646   1.412       .  A
C1646      H1661   1.084       .  S
C1647      C1648   1.401       .  A
C1647      C1652   1.412       .  A
C1648      C1649   1.401       .  A
C1648      H1663   1.085       .  S
C1649      C1650   1.418       .  A
C1649      C1653   1.445       .  S
C1650      C1651   1.406       .  A
C1651      C1652   1.406       .  A
C1651      H1664   1.084       .  S
C1652      C1654   1.443       .  S
C1653      N1657   1.157       .  T
C1654      N1658   1.157       .  T
C1655      N1660   1.157       .  T
C1656      N1659   1.157       .  T
C1665      C1666   1.410       .  A
C1665      C1670   1.405       .  A
C1665      C1679   1.443   1_554  S
C1666      C1671   1.491       .  S
C1666      C1667   1.400       .  A
C1667      C1668   1.402       .  A
C1667      H1686   1.085       .  S
C1668      C1669   1.422       .  A
C1668      C1680   1.445       .  S
C1669      C1670   1.409       .  A
C1670      H1685   1.084   1_554  S
C1671      C1672   1.407       .  A
C1671      C1676   1.409   1_554  A
C1672      C1673   1.410       .  A
C1672      H1687   1.084       .  S
C1673      C1674   1.415       .  A
C1673      C1677   1.443       .  S
C1674      C1675   1.408   1_554  A
C1675      C1676   1.397       .  A
C1675      H1688   1.085       .  S
C1676      C1678   1.445       .  S
C1677      N1681   1.157       .  T
C1678      N1682   1.157       .  T
C1679      N1684   1.157       .  T
C1680      N1683   1.157       .  T
C1689      C1690   1.411       .  A
C1689      C1694   1.391       .  A
C1689      C1703   1.447       .  S
C1690      C1695   1.479       .  S
C1690      C1691   1.401       .  A
C1691      C1692   1.403       .  A
C1691      H1710   1.085       .  S
C1692      C1693   1.421       .  A
C1692      C1704   1.444       .  S
C1693      C1694   1.406       .  A
C1694      H1709   1.084       .  S
C1695      C1696   1.401       .  A
C1695      C1700   1.409       .  A
C1696      C1697   1.396       .  A
C1696      H1711   1.085       .  S
C1697      C1698   1.413       .  A
C1697      C1701   1.445       .  S
C1698      C1699   1.405       .  A
C1699      C1700   1.399       .  A
C1699      H1712   1.085       .  S
C1700      C1702   1.444       .  S
C1701      N1705   1.157       .  T
C1702      N1706   1.157       .  T
C1703      N1708   1.157       .  T
C1704      N1707   1.157       .  T
C1713      C1714   1.410       .  A
C1713      C1718   1.399       .  A
C1713      C1727   1.445       .  S
C1714      C1719   1.492       .  S
C1714      C1715   1.405       .  A
C1715      C1716   1.412       .  A
C1715      H1734   1.084       .  S
C1716      C1717   1.418       .  A
C1716      C1728   1.444       .  S
C1717      C1718   1.407       .  A
C1718      H1733   1.085       .  S
C1719      C1720   1.404       .  A
C1719      C1724   1.411       .  A
C1720      C1721   1.408       .  A
C1720      H1735   1.084       .  S
C1721      C1722   1.414       .  A
C1721      C1725   1.442       .  S
C1722      C1723   1.405       .  A
C1723      C1724   1.402       .  A
C1723      H1736   1.085       .  S
C1724      C1726   1.444       .  S
C1725      N1729   1.157       .  T
C1726      N1730   1.157       .  T
C1727      N1732   1.157       .  T
C1728      N1731   1.157       .  T
C1737      C1738   1.414   1_554  A
C1737      C1742   1.407       .  A
C1737      C1751   1.443       .  S
C1738      C1743   1.493       .  S
C1738      C1739   1.401       .  A
C1739      C1740   1.402       .  A
C1739      H1758   1.085       .  S
C1740      C1741   1.417       .  A
C1740      C1752   1.445       .  S
C1741      C1742   1.405   1_556  A
C1742      H1757   1.085       .  S
C1743      C1744   1.404       .  A
C1743      C1748   1.408   1_556  A
C1744      C1745   1.410       .  A
C1744      H1759   1.085       .  S
C1745      C1746   1.421       .  A
C1745      C1749   1.443       .  S
C1746      C1747   1.412   1_556  A
C1747      C1748   1.400       .  A
C1747      H1760   1.084       .  S
C1748      C1750   1.445       .  S
C1749      N1753   1.157       .  T
C1750      N1754   1.157       .  T
C1751      N1756   1.157       .  T
C1752      N1755   1.157       .  T
C1761      C1762   1.410       .  A
C1761      C1766   1.402       .  A
C1761      C1775   1.444       .  S
C1762      C1767   1.488       .  S
C1762      C1763   1.403       .  A
C1763      C1764   1.401       .  A
C1763      H1782   1.085       .  S
C1764      C1765   1.416       .  A
C1764      C1776   1.445       .  S
C1765      C1766   1.408       .  A
C1766      H1781   1.084       .  S
C1767      C1768   1.403       .  A
C1767      C1772   1.411       .  A
C1768      C1769   1.405       .  A
C1768      H1783   1.085       .  S
C1769      C1770   1.418       .  A
C1769      C1773   1.444       .  S
C1770      C1771   1.407       .  A
C1771      C1772   1.398       .  A
C1771      H1784   1.085       .  S
C1772      C1774   1.445       .  S
C1773      N1777   1.157   1_565  T
C1774      N1778   1.157   1_554  T
C1775      N1780   1.157       .  T
C1776      N1779   1.158   1_554  T
C1785      C1786   1.409       .  A
C1785      C1790   1.397       .  A
C1785      C1799   1.444       .  S
C1786      C1791   1.493       .  S
C1786      C1787   1.409       .  A
C1787      C1788   1.407       .  A
C1787      H1806   1.085       .  S
C1788      C1789   1.412       .  A
C1788      C1800   1.443       .  S
C1789      C1790   1.407       .  A
C1790      H1805   1.085       .  S
C1791      C1792   1.407       .  A
C1791      C1796   1.412       .  A
C1792      C1793   1.406       .  A
C1792      H1807   1.084       .  S
C1793      C1794   1.413       .  A
C1793      C1797   1.443       .  S
C1794      C1795   1.406       .  A
C1795      C1796   1.398       .  A
C1795      H1808   1.085       .  S
C1796      C1798   1.445       .  S
C1797      N1801   1.157       .  T
C1798      N1802   1.157       .  T
C1799      N1804   1.157       .  T
C1800      N1803   1.157       .  T
C1809      C1810   1.413       .  A
C1809      C1814   1.409   1_545  A
C1809      C1823   1.443       .  S
C1810      C1815   1.497       .  S
C1810      C1811   1.401   1_545  A
C1811      C1812   1.402       .  A
C1811      H1830   1.085       .  S
C1812      C1813   1.422       .  A
C1812      C1824   1.445       .  S
C1813      C1814   1.410       .  A
C1814      H1829   1.084       .  S
C1815      C1816   1.408       .  A
C1815      C1820   1.411       .  A
C1816      C1817   1.409       .  A
C1816      H1831   1.085       .  S
C1817      C1818   1.415       .  A
C1817      C1821   1.444       .  S
C1818      C1819   1.409       .  A
C1819      C1820   1.402       .  A
C1819      H1832   1.085       .  S
C1820      C1822   1.444   1_545  S
C1821      N1825   1.157       .  T
C1822      N1826   1.157       .  T
C1823      N1828   1.157       .  T
C1824      N1827   1.157       .  T
C1833      C1834   1.407       .  A
C1833      C1838   1.400       .  A
C1833      C1847   1.443       .  S
C1834      C1839   1.478       .  S
C1834      C1835   1.400       .  A
C1835      C1836   1.398       .  A
C1835      H1854   1.085       .  S
C1836      C1837   1.418       .  A
C1836      C1848   1.446       .  S
C1837      C1838   1.406       .  A
C1838      H1853   1.084       .  S
C1839      C1840   1.399       .  A
C1839      C1844   1.408       .  A
C1840      C1841   1.403       .  A
C1840      H1855   1.084       .  S
C1841      C1842   1.421       .  A
C1841      C1845   1.444       .  S
C1842      C1843   1.408       .  A
C1843      C1844   1.394       .  A
C1843      H1856   1.084       .  S
C1844      C1846   1.446       .  S
C1845      N1849   1.157       .  T
C1846      N1850   1.157       .  T
C1847      N1852   1.157       .  T
C1848      N1851   1.158       .  T
C1857      C1858   1.414       .  A
C1857      C1862   1.407       .  A
C1857      C1871   1.443       .  S
C1858      C1863   1.493       .  S
C1858      C1859   1.402       .  A
C1859      C1860   1.402       .  A
C1859      H1878   1.085       .  S
C1860      C1861   1.415       .  A
C1860      C1872   1.444       .  S
C1861      C1862   1.406       .  A
C1862      H1877   1.084       .  S
C1863      C1864   1.405       .  A
C1863      C1868   1.408       .  A
C1864      C1865   1.411       .  A
C1864      H1879   1.085       .  S
C1865      C1866   1.420       .  A
C1865      C1869   1.443       .  S
C1866      C1867   1.410       .  A
C1867      C1868   1.398       .  A
C1867      H1880   1.084       .  S
C1868      C1870   1.445       .  S
C1869      N1873   1.157       .  T
C1870      N1874   1.157       .  T
C1871      N1876   1.157       .  T
C1872      N1875   1.157       .  T
C1881      C1882   1.411       .  A
C1881      C1886   1.404       .  A
C1881      C1895   1.444       .  S
C1882      C1887   1.491       .  S
C1882      C1883   1.401       .  A
C1883      C1884   1.402       .  A
C1883      H1902   1.085       .  S
C1884      C1885   1.419       .  A
C1884      C1896   1.445       .  S
C1885      C1886   1.408       .  A
C1886      H1901   1.084       .  S
C1887      C1888   1.405       .  A
C1887      C1892   1.411       .  A
C1888      C1889   1.409       .  A
C1888      H1903   1.084       .  S
C1889      C1890   1.419       .  A
C1889      C1893   1.443       .  S
C1890      C1891   1.408       .  A
C1891      C1892   1.396       .  A
C1891      H1904   1.084       .  S
C1892      C1894   1.446       .  S
C1893      N1897   1.157       .  T
C1894      N1898   1.157       .  T
C1895      N1900   1.157       .  T
C1896      N1899   1.158       .  T
C1905      C1906   1.414       .  A
C1905      C1910   1.402       .  A
C1905      C1919   1.444       .  S
C1906      C1911   1.481       .  S
C1906      C1907   1.399       .  A
C1907      C1908   1.395       .  A
C1907      H1926   1.085       .  S
C1908      C1909   1.415       .  A
C1908      C1920   1.446       .  S
C1909      C1910   1.402       .  A
C1910      H1925   1.085       .  S
C1911      C1912   1.400       .  A
C1911      C1916   1.412       .  A
C1912      C1913   1.393       .  A
C1912      H1927   1.085       .  S
C1913      C1914   1.413       .  A
C1913      C1917   1.446       .  S
C1914      C1915   1.404       .  A
C1915      C1916   1.404       .  A
C1915      H1928   1.085       .  S
C1916      C1918   1.444       .  S
C1917      N1921   1.157       .  T
C1918      N1922   1.157       .  T
C1919      N1924   1.157       .  T
C1920      N1923   1.157       .  T
C1929      C1930   1.411       .  A
C1929      C1934   1.407       .  A
C1929      C1943   1.443       .  S
C1930      C1935   1.493       .  S
C1930      C1931   1.400       .  A
C1931      C1932   1.401       .  A
C1931      H1950   1.085       .  S
C1932      C1933   1.422       .  A
C1932      C1944   1.445       .  S
C1933      C1934   1.409       .  A
C1934      H1949   1.084       .  S
C1935      C1936   1.407       .  A
C1935      C1940   1.409       .  A
C1936      C1937   1.410       .  A
C1936      H1951   1.084       .  S
C1937      C1938   1.415       .  A
C1937      C1941   1.443       .  S
C1938      C1939   1.410       .  A
C1939      C1940   1.399       .  A
C1939      H1952   1.085       .  S
C1940      C1942   1.445       .  S
C1941      N1945   1.157       .  T
C1942      N1946   1.157       .  T
C1943      N1948   1.157       .  T
C1944      N1947   1.157       .  T
C1953      C1954   1.410       .  A
C1953      C1958   1.401       .  A
C1953      C1967   1.444       .  S
C1954      C1959   1.485       .  S
C1954      C1955   1.401       .  A
C1955      C1956   1.401       .  A
C1955      H1974   1.085       .  S
C1956      C1957   1.419       .  A
C1956      C1968   1.445       .  S
C1957      C1958   1.407       .  A
C1958      H1973   1.084       .  S
C1959      C1960   1.404       .  A
C1959      C1964   1.410       .  A
C1960      C1961   1.408       .  A
C1960      H1975   1.084       .  S
C1961      C1962   1.418       .  A
C1961      C1965   1.444       .  S
C1962      C1963   1.406       .  A
C1963      C1964   1.393       .  A
C1963      H1976   1.084       .  S
C1964      C1966   1.446       .  S
C1965      N1969   1.158       .  T
C1966      N1970   1.157       .  T
C1967      N1972   1.157       .  T
C1968      N1971   1.158       .  T
C1977      C1978   1.409       .  A
C1977      C1982   1.404       .  A
C1977      C1991   1.443       .  S
C1978      C1983   1.482       .  S
C1978      C1979   1.400       .  A
C1979      C1980   1.392       .  A
C1979      H1998   1.086       .  S
C1980      C1981   1.417       .  A
C1980      C1992   1.446       .  S
C1981      C1982   1.410       .  A
C1982      H1997   1.084       .  S
C1983      C1984   1.403       .  A
C1983      C1988   1.411       .  A
C1984      C1985   1.399       .  A
C1984      H1999   1.085       .  S
C1985      C1986   1.416       .  A
C1985      C1989   1.445       .  S
C1986      C1987   1.406       .  A
C1987      C1988   1.398       .  A
C1987      H2000   1.085       .  S
C1988      C1990   1.445       .  S
C1989      N1993   1.157       .  T
C1990      N1994   1.157       .  T
C1991      N1996   1.157       .  T
C1992      N1995   1.157       .  T
C2001      C2002   1.412       .  A
C2001      C2006   1.396       .  A
C2001      C2015   1.444       .  S
C2002      C2007   1.488       .  S
C2002      C2003   1.405       .  A
C2003      C2004   1.405       .  A
C2003      H2022   1.084       .  S
C2004      C2005   1.414       .  A
C2004      C2016   1.444       .  S
C2005      C2006   1.402       .  A
C2006      H2021   1.085       .  S
C2007      C2008   1.407       .  A
C2007      C2012   1.410       .  A
C2008      C2009   1.400       .  A
C2008      H2023   1.085       .  S
C2009      C2010   1.407       .  A
C2009      C2013   1.444       .  S
C2010      C2011   1.404       .  A
C2011      C2012   1.402       .  A
C2011      H2024   1.085       .  S
C2012      C2014   1.443       .  S
C2013      N2017   1.157       .  T
C2014      N2018   1.157       .  T
C2015      N2020   1.157       .  T
C2016      N2019   1.157       .  T
C2025      C2026   1.415       .  A
C2025      C2030   1.407       .  A
C2025      C2039   1.444   1_565  S
C2026      C2031   1.497   1_565  S
C2026      C2027   1.403       .  A
C2027      C2028   1.401       .  A
C2027      H2046   1.085       .  S
C2028      C2029   1.417       .  A
C2028      C2040   1.445       .  S
C2029      C2030   1.407       .  A
C2030      H2045   1.085       .  S
C2031      C2032   1.407       .  A
C2031      C2036   1.411       .  A
C2032      C2033   1.408       .  A
C2032      H2047   1.085       .  S
C2033      C2034   1.417       .  A
C2033      C2037   1.443       .  S
C2034      C2035   1.410       .  A
C2035      C2036   1.401       .  A
C2035      H2048   1.085       .  S
C2036      C2038   1.445   1_545  S
C2037      N2041   1.157       .  T
C2038      N2042   1.157       .  T
C2039      N2044   1.157       .  T
C2040      N2043   1.157       .  T
C2049      C2050   1.412       .  A
C2049      C2054   1.403       .  A
C2049      C2063   1.443       .  S
C2050      C2055   1.482       .  S
C2050      C2051   1.401       .  A
C2051      C2052   1.393       .  A
C2051      H2070   1.085       .  S
C2052      C2053   1.411       .  A
C2052      C2064   1.446       .  S
C2053      C2054   1.404       .  A
C2054      H2069   1.085       .  S
C2055      C2056   1.398       .  A
C2055      C2060   1.415       .  A
C2056      C2057   1.396       .  A
C2056      H2071   1.085       .  S
C2057      C2058   1.415       .  A
C2057      C2061   1.445       .  S
C2058      C2059   1.400       .  A
C2059      C2060   1.402       .  A
C2059      H2072   1.085       .  S
C2060      C2062   1.444       .  S
C2061      N2065   1.157       .  T
C2062      N2066   1.157       .  T
C2063      N2068   1.157       .  T
C2064      N2067   1.157       .  T
C2073      C2074   1.411   1_455  A
C2073      C2078   1.407       .  A
C2073      C2087   1.443   1_455  S
C2074      C2079   1.490       .  S
C2074      C2075   1.401       .  A
C2075      C2076   1.402   1_655  A
C2075      H2094   1.085       .  S
C2076      C2077   1.417       .  A
C2076      C2088   1.445       .  S
C2077      C2078   1.407       .  A
C2078      H2093   1.085       .  S
C2079      C2080   1.404       .  A
C2079      C2084   1.407       .  A
C2080      C2081   1.410       .  A
C2080      H2095   1.084       .  S
C2081      C2082   1.419       .  A
C2081      C2085   1.443       .  S
C2082      C2083   1.411       .  A
C2083      C2084   1.398       .  A
C2083      H2096   1.081       .  S
C2084      C2086   1.446   1_655  S
C2085      N2089   1.157       .  T
C2086      N2090   1.157       .  T
C2087      N2092   1.157       .  T
C2088      N2091   1.157       .  T
C2097      C2098   1.408       .  A
C2097      C2102   1.392       .  A
C2097      C2111   1.446       .  S
C2098      C2103   1.476       .  S
C2098      C2099   1.402       .  A
C2099      C2100   1.401       .  A
C2099      H2118   1.085       .  S
C2100      C2101   1.417       .  A
C2100      C2112   1.444       .  S
C2101      C2102   1.408       .  A
C2102      H2117   1.085       .  S
C2103      C2104   1.399       .  A
C2103      C2108   1.406       .  A
C2104      C2105   1.396       .  A
C2104      H2119   1.085       .  S
C2105      C2106   1.419       .  A
C2105      C2109   1.445       .  S
C2106      C2107   1.410       .  A
C2107      C2108   1.398       .  A
C2107      H2120   1.084       .  S
C2108      C2110   1.444       .  S
C2109      N2113   1.158       .  T
C2110      N2114   1.157       .  T
C2111      N2116   1.157       .  T
C2112      N2115   1.157       .  T
C2121      C2122   1.411       .  A
C2121      C2126   1.404       .  A
C2121      C2135   1.444       .  S
C2122      C2127   1.490       .  S
C2122      C2123   1.401       .  A
C2123      C2124   1.400       .  A
C2123      H2142   1.085       .  S
C2124      C2125   1.418       .  A
C2124      C2136   1.445       .  S
C2125      C2126   1.408       .  A
C2126      H2141   1.084       .  S
C2127      C2128   1.405       .  A
C2127      C2132   1.411       .  A
C2128      C2129   1.405       .  A
C2128      H2143   1.085       .  S
C2129      C2130   1.414       .  A
C2129      C2133   1.444       .  S
C2130      C2131   1.408       .  A
C2131      C2132   1.399       .  A
C2131      H2144   1.085       .  S
C2132      C2134   1.445       .  S
C2133      N2137   1.157       .  T
C2134      N2138   1.157       .  T
C2135      N2140   1.157       .  T
C2136      N2139   1.157       .  T
C2145      C2146   1.404       .  A
C2145      C2150   1.395       .  A
C2145      C2159   1.445       .  S
C2146      C2151   1.483       .  S
C2146      C2147   1.404       .  A
C2147      C2148   1.406       .  A
C2147      H2166   1.085       .  S
C2148      C2149   1.418       .  A
C2148      C2160   1.443       .  S
C2149      C2150   1.413       .  A
C2150      H2165   1.084       .  S
C2151      C2152   1.405       .  A
C2151      C2156   1.405       .  A
C2152      C2153   1.406       .  A
C2152      H2167   1.085       .  S
C2153      C2154   1.417       .  A
C2153      C2157   1.443       .  S
C2154      C2155   1.409       .  A
C2155      C2156   1.394       .  A
C2155      H2168   1.085       .  S
C2156      C2158   1.445       .  S
C2157      N2161   1.157       .  T
C2158      N2162   1.157       .  T
C2159      N2164   1.157       .  T
C2160      N2163   1.157       .  T
C2169      C2170   1.409       .  A
C2169      C2174   1.403       .  A
C2169      C2183   1.445       .  S
C2170      C2175   1.496       .  S
C2170      C2171   1.404       .  A
C2171      C2172   1.411       .  A
C2171      H2190   1.084       .  S
C2172      C2173   1.422       .  A
C2172      C2184   1.443       .  S
C2173      C2174   1.412       .  A
C2174      H2189   1.084       .  S
C2175      C2176   1.401       .  A
C2175      C2180   1.412       .  A
C2176      C2177   1.404       .  A
C2176      H2191   1.085       .  S
C2177      C2178   1.421   1_455  A
C2177      C2181   1.444   1_455  S
C2178      C2179   1.409   1_655  A
C2179      C2180   1.409       .  A
C2179      H2192   1.084       .  S
C2180      C2182   1.443       .  S
C2181      N2185   1.157       .  T
C2182      N2186   1.157       .  T
C2183      N2188   1.157       .  T
C2184      N2187   1.157       .  T
C2193      C2194   1.412       .  A
C2193      C2198   1.400       .  A
C2193      C2207   1.445       .  S
C2194      C2199   1.498       .  S
C2194      C2195   1.408       .  A
C2195      C2196   1.410       .  A
C2195      H2214   1.085       .  S
C2196      C2197   1.417       .  A
C2196      C2208   1.444       .  S
C2197      C2198   1.408       .  A
C2198      H2213   1.085       .  S
C2199      C2200   1.403       .  A
C2199      C2204   1.415       .  A
C2200      C2201   1.402       .  A
C2200      H2215   1.085       .  S
C2201      C2202   1.417       .  A
C2201      C2205   1.444       .  S
C2202      C2203   1.407       .  A
C2203      C2204   1.406       .  A
C2203      H2216   1.084       .  S
C2204      C2206   1.444       .  S
C2205      N2209   1.157       .  T
C2206      N2210   1.157       .  T
C2207      N2212   1.157       .  T
C2208      N2211   1.157       .  T
C2217      C2218   1.412       .  A
C2217      C2222   1.396       .  A
C2217      C2231   1.446       .  S
C2218      C2223   1.491       .  S
C2218      C2219   1.405       .  A
C2219      C2220   1.407       .  A
C2219      H2238   1.085       .  S
C2220      C2221   1.419       .  A
C2220      C2232   1.443       .  S
C2221      C2222   1.409       .  A
C2222      H2237   1.084       .  S
C2223      C2224   1.403       .  A
C2223      C2228   1.412       .  A
C2224      C2225   1.400       .  A
C2224      H2239   1.085       .  S
C2225      C2226   1.418       .  A
C2225      C2229   1.445       .  S
C2226      C2227   1.408       .  A
C2227      C2228   1.402       .  A
C2227      H2240   1.084       .  S
C2228      C2230   1.444       .  S
C2229      N2233   1.158       .  T
C2230      N2234   1.157       .  T
C2231      N2236   1.157       .  T
C2232      N2235   1.157       .  T
C2241      C2242   1.415       .  A
C2241      C2246   1.397       .  A
C2241      C2255   1.445       .  S
C2242      C2247   1.492       .  S
C2242      C2243   1.406       .  A
C2243      C2244   1.405       .  A
C2243      H2262   1.084       .  S
C2244      C2245   1.412       .  A
C2244      C2256   1.444       .  S
C2245      C2246   1.402       .  A
C2246      H2261   1.085       .  S
C2247      C2248   1.407       .  A
C2247      C2252   1.412       .  A
C2248      C2249   1.398       .  A
C2248      H2263   1.085       .  S
C2249      C2250   1.408       .  A
C2249      C2253   1.445       .  S
C2250      C2251   1.404       .  A
C2251      C2252   1.403       .  A
C2251      H2264   1.085       .  S
C2252      C2254   1.443       .  S
C2253      N2257   1.157       .  T
C2254      N2258   1.157       .  T
C2255      N2260   1.157       .  T
C2256      N2259   1.157       .  T
C2265      C2266   1.416       .  A
C2265      C2270   1.408       .  A
C2265      C2279   1.443       .  S
C2266      C2271   1.498       .  S
C2266      C2267   1.402       .  A
C2267      C2268   1.402       .  A
C2267      H2286   1.085       .  S
C2268      C2269   1.419       .  A
C2268      C2280   1.445       .  S
C2269      C2270   1.406       .  A
C2270      H2285   1.084       .  S
C2271      C2272   1.409       .  A
C2271      C2276   1.410       .  A
C2272      C2273   1.412       .  A
C2272      H2287   1.084       .  S
C2273      C2274   1.418       .  A
C2273      C2277   1.442       .  S
C2274      C2275   1.412       .  A
C2275      C2276   1.398       .  A
C2275      H2288   1.084       .  S
C2276      C2278   1.446       .  S
C2277      N2281   1.157       .  T
C2278      N2282   1.157       .  T
C2279      N2284   1.157       .  T
C2280      N2283   1.157       .  T
C2289      C2290   1.411       .  A
C2289      C2294   1.401       .  A
C2289      C2303   1.445       .  S
C2290      C2295   1.495       .  S
C2290      C2291   1.406       .  A
C2291      C2292   1.407       .  A
C2291      H2310   1.085       .  S
C2292      C2293   1.417       .  A
C2292      C2304   1.443       .  S
C2293      C2294   1.411       .  A
C2294      H2309   1.084       .  S
C2295      C2296   1.399       .  A
C2295      C2300   1.415   1_545  A
C2296      C2297   1.396   1_545  A
C2296      H2311   1.085       .  S
C2297      C2298   1.420       .  A
C2297      C2301   1.446       .  S
C2298      C2299   1.407       .  A
C2299      C2300   1.411       .  A
C2299      H2312   1.084       .  S
C2300      C2302   1.443       .  S
C2301      N2305   1.157       .  T
C2302      N2306   1.157       .  T
C2303      N2308   1.157       .  T
C2304      N2307   1.157       .  T
C2313      C2314   1.408       .  A
C2313      C2318   1.397       .  A
C2313      C2327   1.445       .  S
C2314      C2319   1.494       .  S
C2314      C2315   1.407       .  A
C2315      C2316   1.411       .  A
C2315      H2334   1.084       .  S
C2316      C2317   1.419       .  A
C2316      C2328   1.443       .  S
C2317      C2318   1.410       .  A
C2318      H2333   1.084       .  S
C2319      C2320   1.401       .  A
C2319      C2324   1.412       .  A
C2320      C2321   1.404       .  A
C2320      H2335   1.085       .  S
C2321      C2322   1.419       .  A
C2321      C2325   1.444       .  S
C2322      C2323   1.408       .  A
C2323      C2324   1.406       .  A
C2323      H2336   1.084       .  S
C2324      C2326   1.444       .  S
C2325      N2329   1.157       .  T
C2326      N2330   1.157       .  T
C2327      N2332   1.157       .  T
C2328      N2331   1.157       .  T
C2337      C2338   1.410       .  A
C2337      C2342   1.395       .  A
C2337      C2351   1.445       .  S
C2338      C2343   1.484       .  S
C2338      C2339   1.403       .  A
C2339      C2340   1.406       .  A
C2339      H2358   1.085       .  S
C2340      C2341   1.419       .  A
C2340      C2352   1.444       .  S
C2341      C2342   1.405       .  A
C2342      H2357   1.085       .  S
C2343      C2344   1.401       .  A
C2343      C2348   1.410       .  A
C2344      C2345   1.399       .  A
C2344      H2359   1.085       .  S
C2345      C2346   1.415       .  A
C2345      C2349   1.444       .  S
C2346      C2347   1.407       .  A
C2347      C2348   1.401       .  A
C2347      H2360   1.084       .  S
C2348      C2350   1.444       .  S
C2349      N2353   1.157       .  T
C2350      N2354   1.157       .  T
C2351      N2356   1.157       .  T
C2352      N2355   1.157       .  T
C2361      C2362   1.410       .  A
C2361      C2366   1.402       .  A
C2361      C2375   1.444       .  S
C2362      C2367   1.485       .  S
C2362      C2363   1.401       .  A
C2363      C2364   1.398       .  A
C2363      H2382   1.085       .  S
C2364      C2365   1.415       .  A
C2364      C2376   1.445       .  S
C2365      C2366   1.408       .  A
C2366      H2381   1.084       .  S
C2367      C2368   1.403       .  A
C2367      C2372   1.409       .  A
C2368      C2369   1.406       .  A
C2368      H2383   1.085       .  S
C2369      C2370   1.420       .  A
C2369      C2373   1.443       .  S
C2370      C2371   1.409       .  A
C2371      C2372   1.395       .  A
C2371      H2384   1.084       .  S
C2372      C2374   1.445       .  S
C2373      N2377   1.157       .  T
C2374      N2378   1.157       .  T
C2375      N2380   1.157       .  T
C2376      N2379   1.157       .  T
C2385      C2386   1.415       .  A
C2385      C2390   1.410       .  A
C2385      C2399   1.443       .  S
C2386      C2391   1.495       .  S
C2386      C2387   1.399       .  A
C2387      C2388   1.397       .  A
C2387      H2406   1.085       .  S
C2388      C2389   1.423       .  A
C2388      C2400   1.446       .  S
C2389      C2390   1.409       .  A
C2390      H2405   1.084       .  S
C2391      C2392   1.408       .  A
C2391      C2396   1.410       .  A
C2392      C2393   1.409       .  A
C2392      H2407   1.085       .  S
C2393      C2394   1.417       .  A
C2393      C2397   1.443       .  S
C2394      C2395   1.411       .  A
C2395      C2396   1.400       .  A
C2395      H2408   1.085       .  S
C2396      C2398   1.445       .  S
C2397      N2401   1.157       .  T
C2398      N2402   1.157       .  T
C2399      N2404   1.157       .  T
C2400      N2403   1.157       .  T
C2409      C2410   1.414       .  A
C2409      C2414   1.409       .  A
C2409      C2423   1.443       .  S
C2410      C2415   1.497       .  S
C2410      C2411   1.401       .  A
C2411      C2412   1.403       .  A
C2411      H2430   1.085       .  S
C2412      C2413   1.418       .  A
C2412      C2424   1.444       .  S
C2413      C2414   1.407       .  A
C2414      H2429   1.084       .  S
C2415      C2416   1.407       .  A
C2415      C2420   1.408       .  A
C2416      C2417   1.412       .  A
C2416      H2431   1.084       .  S
C2417      C2418   1.419       .  A
C2417      C2421   1.443       .  S
C2418      C2419   1.412       .  A
C2419      C2420   1.400       .  A
C2419      H2432   1.084       .  S
C2420      C2422   1.445       .  S
C2421      N2425   1.157       .  T
C2422      N2426   1.157       .  T
C2423      N2428   1.157       .  T
C2424      N2427   1.157       .  T
C2433      C2434   1.410       .  A
C2433      C2438   1.397       .  A
C2433      C2447   1.445       .  S
C2434      C2439   1.482       .  S
C2434      C2435   1.402       .  A
C2435      C2436   1.402       .  A
C2435      H2454   1.085       .  S
C2436      C2437   1.417       .  A
C2436      C2448   1.444       .  S
C2437      C2438   1.406       .  A
C2438      H2453   1.085       .  S
C2439      C2440   1.400       .  A
C2439      C2444   1.409       .  A
C2440      C2441   1.397       .  A
C2440      H2455   1.085       .  S
C2441      C2442   1.417       .  A
C2441      C2445   1.446       .  S
C2442      C2443   1.408       .  A
C2443      C2444   1.402       .  A
C2443      H2456   1.084       .  S
C2444      C2446   1.444       .  S
C2445      N2449   1.157       .  T
C2446      N2450   1.157       .  T
C2447      N2452   1.157       .  T
C2448      N2451   1.157       .  T
C2457      C2458   1.412       .  A
C2457      C2462   1.406       .  A
C2457      C2471   1.443   1_545  S
C2458      C2463   1.491       .  S
C2458      C2459   1.400       .  A
C2459      C2460   1.400       .  A
C2459      H2478   1.085       .  S
C2460      C2461   1.420       .  A
C2460      C2472   1.445       .  S
C2461      C2462   1.407       .  A
C2462      H2477   1.084       .  S
C2463      C2464   1.405   1_545  A
C2463      C2468   1.410       .  A
C2464      C2465   1.408       .  A
C2464      H2479   1.084       .  S
C2465      C2466   1.417       .  A
C2465      C2469   1.443       .  S
C2466      C2467   1.409       .  A
C2467      C2468   1.399   1_565  A
C2467      H2480   1.085       .  S
C2468      C2470   1.445       .  S
C2469      N2473   1.157       .  T
C2470      N2474   1.157       .  T
C2471      N2476   1.157       .  T
C2472      N2475   1.157       .  T
C2481      C2482   1.414       .  A
C2481      C2486   1.409       .  A
C2481      C2495   1.443       .  S
C2482      C2487   1.499       .  S
C2482      C2483   1.405       .  A
C2483      C2484   1.403       .  A
C2483      H2502   1.085       .  S
C2484      C2485   1.414       .  A
C2484      C2496   1.445       .  S
C2485      C2486   1.405       .  A
C2486      H2501   1.085       .  S
C2487      C2488   1.407       .  A
C2487      C2492   1.414       .  A
C2488      C2489   1.406       .  A
C2488      H2503   1.085       .  S
C2489      C2490   1.411       .  A
C2489      C2493   1.443       .  S
C2490      C2491   1.405       .  A
C2491      C2492   1.406       .  A
C2491      H2504   1.085       .  S
C2492      C2494   1.444       .  S
C2493      N2497   1.157       .  T
C2494      N2498   1.157       .  T
C2495      N2500   1.157       .  T
C2496      N2499   1.157       .  T
C2505      C2506   1.407       .  A
C2505      C2510   1.393       .  A
C2505      C2519   1.446       .  S
C2506      C2511   1.485       .  S
C2506      C2507   1.405       .  A
C2507      C2508   1.407       .  A
C2507      H2526   1.084       .  S
C2508      C2509   1.415       .  A
C2508      C2520   1.443       .  S
C2509      C2510   1.409       .  A
C2510      H2525   1.085       .  S
C2511      C2512   1.405       .  A
C2511      C2516   1.410       .  A
C2512      C2513   1.405       .  A
C2512      H2527   1.084       .  S
C2513      C2514   1.412       .  A
C2513      C2517   1.443       .  S
C2514      C2515   1.406       .  A
C2515      C2516   1.395       .  A
C2515      H2528   1.085       .  S
C2516      C2518   1.446       .  S
C2517      N2521   1.157       .  T
C2518      N2522   1.157       .  T
C2519      N2524   1.157       .  T
C2520      N2523   1.157       .  T
C2529      C2530   1.412       .  A
C2529      C2534   1.406       .  A
C2529      C2543   1.444       .  S
C2530      C2535   1.491       .  S
C2530      C2531   1.402       .  A
C2531      C2532   1.402       .  A
C2531      H2550   1.085       .  S
C2532      C2533   1.414       .  A
C2532      C2544   1.444       .  S
C2533      C2534   1.405       .  A
C2534      H2549   1.085       .  S
C2535      C2536   1.402       .  A
C2535      C2540   1.409       .  A
C2536      C2537   1.407       .  A
C2536      H2551   1.085       .  S
C2537      C2538   1.421       .  A
C2537      C2541   1.443       .  S
C2538      C2539   1.411       .  A
C2539      C2540   1.400       .  A
C2539      H2552   1.084       .  S
C2540      C2542   1.445       .  S
C2541      N2545   1.157       .  T
C2542      N2546   1.157       .  T
C2543      N2548   1.157       .  T
C2544      N2547   1.157       .  T
C2553      C2554   1.408       .  A
C2553      C2558   1.397       .  A
C2553      C2567   1.446       .  S
C2554      C2559   1.492       .  S
C2554      C2555   1.406       .  A
C2555      C2556   1.410       .  A
C2555      H2574   1.084       .  S
C2556      C2557   1.418       .  A
C2556      C2568   1.442       .  S
C2557      C2558   1.413       .  A
C2558      H2573   1.084       .  S
C2559      C2560   1.401       .  A
C2559      C2564   1.415       .  A
C2560      C2561   1.399       .  A
C2560      H2575   1.085       .  S
C2561      C2562   1.414       .  A
C2561      C2565   1.445       .  S
C2562      C2563   1.405       .  A
C2563      C2564   1.407       .  A
C2563      H2576   1.085       .  S
C2564      C2566   1.444       .  S
C2565      N2569   1.157       .  T
C2566      N2570   1.157       .  T
C2567      N2572   1.157       .  T
C2568      N2571   1.157       .  T
C2577      C2578   1.410       .  A
C2577      C2582   1.390       .  A
C2577      C2591   1.447       .  S
C2578      C2583   1.477       .  S
C2578      C2579   1.403       .  A
C2579      C2580   1.404       .  A
C2579      H2598   1.085       .  S
C2580      C2581   1.415       .  A
C2580      C2592   1.444       .  S
C2581      C2582   1.404       .  A
C2582      H2597   1.085       .  S
C2583      C2584   1.400       .  A
C2583      C2588   1.409       .  A
C2584      C2585   1.398       .  A
C2584      H2599   1.085       .  S
C2585      C2586   1.416       .  A
C2585      C2589   1.445       .  S
C2586      C2587   1.406       .  A
C2587      C2588   1.397       .  A
C2587      H2600   1.085       .  S
C2588      C2590   1.445       .  S
C2589      N2593   1.158       .  T
C2590      N2594   1.157       .  T
C2591      N2596   1.157       .  T
C2592      N2595   1.157       .  T
C2601      C2602   1.413       .  A
C2601      C2606   1.393       .  A
C2601      C2615   1.445       .  S
C2602      C2607   1.483       .  S
C2602      C2603   1.405       .  A
C2603      C2604   1.401       .  A
C2603      H2622   1.085       .  S
C2604      C2605   1.415       .  A
C2604      C2616   1.445       .  S
C2605      C2606   1.404       .  A
C2606      H2621   1.085       .  S
C2607      C2608   1.402       .  A
C2607      C2612   1.409       .  A
C2608      C2609   1.394       .  A
C2608      H2623   1.085       .  S
C2609      C2610   1.417       .  A
C2609      C2613   1.446       .  S
C2610      C2611   1.408       .  A
C2611      C2612   1.400       .  A
C2611      H2624   1.084       .  S
C2612      C2614   1.444       .  S
C2613      N2617   1.157       .  T
C2614      N2618   1.157       .  T
C2615      N2620   1.157       .  T
C2616      N2619   1.158       .  T
C2625      C2626   1.405       .  A
C2625      C2630   1.395       .  A
C2625      C2639   1.444       .  S
C2626      C2631   1.480       .  S
C2626      C2627   1.406       .  A
C2627      C2628   1.402       .  A
C2627      H2646   1.085       .  S
C2628      C2629   1.410       .  A
C2628      C2640   1.442       .  S
C2629      C2630   1.407       .  A
C2630      H2645   1.085       .  S
C2631      C2632   1.403       .  A
C2631      C2636   1.410       .  A
C2632      C2633   1.403       .  A
C2632      H2647   1.085       .  S
C2633      C2634   1.412       .  A
C2633      C2637   1.444       .  S
C2634      C2635   1.402       .  A
C2635      C2636   1.395       .  A
C2635      H2648   1.085       .  S
C2636      C2638   1.445       .  S
C2637      N2641   1.157       .  T
C2638      N2642   1.157       .  T
C2639      N2644   1.157       .  T
C2640      N2643   1.157       .  T
C2649      C2650   1.410       .  A
C2649      C2654   1.403       .  A
C2649      C2663   1.443       .  S
C2650      C2655   1.487       .  S
C2650      C2651   1.405       .  A
C2651      C2652   1.400       .  A
C2651      H2670   1.085       .  S
C2652      C2653   1.409       .  A
C2652      C2664   1.445       .  S
C2653      C2654   1.404       .  A
C2654      H2669   1.085       .  S
C2655      C2656   1.403       .  A
C2655      C2660   1.412       .  A
C2656      C2657   1.403       .  A
C2656      H2671   1.085       .  S
C2657      C2658   1.412       .  A
C2657      C2661   1.444       .  S
C2658      C2659   1.402       .  A
C2659      C2660   1.399       .  A
C2659      H2672   1.085       .  S
C2660      C2662   1.444       .  S
C2661      N2665   1.157       .  T
C2662      N2666   1.157       .  T
C2663      N2668   1.157       .  T
C2664      N2667   1.157       .  T
C2673      C2674   1.414       .  A
C2673      C2678   1.407       .  A
C2673      C2687   1.443       .  S
C2674      C2679   1.497       .  S
C2674      C2675   1.402   1_554  A
C2675      C2676   1.401       .  A
C2675      H2694   1.085       .  S
C2676      C2677   1.421       .  A
C2676      C2688   1.446       .  S
C2677      C2678   1.406   1_556  A
C2678      H2693   1.084       .  S
C2679      C2680   1.405   1_554  A
C2679      C2684   1.411       .  A
C2680      C2681   1.407       .  A
C2680      H2695   1.085       .  S
C2681      C2682   1.420   1_556  A
C2681      C2685   1.444       .  S
C2682      C2683   1.411       .  A
C2683      C2684   1.402       .  A
C2683      H2696   1.084       .  S
C2684      C2686   1.445       .  S
C2685      N2689   1.157       .  T
C2686      N2690   1.157       .  T
C2687      N2692   1.157       .  T
C2688      N2691   1.158       .  T
C2697      C2698   1.410       .  A
C2697      C2702   1.394       .  A
C2697      C2711   1.446       .  S
C2698      C2703   1.483       .  S
C2698      C2699   1.404       .  A
C2699      C2700   1.405       .  A
C2699      H2718   1.085       .  S
C2700      C2701   1.418       .  A
C2700      C2712   1.444       .  S
C2701      C2702   1.408       .  A
C2702      H2717   1.084       .  S
C2703      C2704   1.399       .  A
C2703      C2708   1.409       .  A
C2704      C2705   1.397       .  A
C2704      H2719   1.085       .  S
C2705      C2706   1.420       .  A
C2705      C2709   1.445       .  S
C2706      C2707   1.409       .  A
C2707      C2708   1.401       .  A
C2707      H2720   1.084       .  S
C2708      C2710   1.444       .  S
C2709      N2713   1.157       .  T
C2710      N2714   1.157       .  T
C2711      N2716   1.157   1_554  T
C2712      N2715   1.157       .  T
C2721      C2722   1.412   1_554  A
C2721      C2726   1.403       .  A
C2721      C2735   1.445       .  S
C2722      C2727   1.497       .  S
C2722      C2723   1.406       .  A
C2723      C2724   1.408       .  A
C2723      H2742   1.085       .  S
C2724      C2725   1.417   1_556  A
C2724      C2736   1.444       .  S
C2725      C2726   1.409       .  A
C2726      H2741   1.085       .  S
C2727      C2728   1.402       .  A
C2727      C2732   1.414   1_556  A
C2728      C2729   1.402       .  A
C2728      H2743   1.085       .  S
C2729      C2730   1.418       .  A
C2729      C2733   1.444       .  S
C2730      C2731   1.409   1_556  A
C2731      C2732   1.408       .  A
C2731      H2744   1.084       .  S
C2732      C2734   1.444       .  S
C2733      N2737   1.157       .  T
C2734      N2738   1.157       .  T
C2735      N2740   1.157       .  T
C2736      N2739   1.157       .  T
C2745      C2746   1.416       .  A
C2745      C2750   1.411       .  A
C2745      C2759   1.443       .  S
C2746      C2751   1.505       .  S
C2746      C2747   1.402       .  A
C2747      C2748   1.404       .  A
C2747      H2766   1.085       .  S
C2748      C2749   1.422       .  A
C2748      C2760   1.445       .  S
C2749      C2750   1.408       .  A
C2750      H2765   1.084       .  S
C2751      C2752   1.410       .  A
C2751      C2756   1.413       .  A
C2752      C2753   1.413       .  A
C2752      H2767   1.084       .  S
C2753      C2754   1.417       .  A
C2753      C2757   1.443       .  S
C2754      C2755   1.411       .  A
C2755      C2756   1.402       .  A
C2755      H2768   1.085       .  S
C2756      C2758   1.445       .  S
C2757      N2761   1.157       .  T
C2758      N2762   1.157       .  T
C2759      N2764   1.157       .  T
C2760      N2763   1.157       .  T
C2769      C2770   1.408       .  A
C2769      C2774   1.401       .  A
C2769      C2783   1.445       .  S
C2770      C2775   1.495       .  S
C2770      C2771   1.404       .  A
C2771      C2772   1.412       .  A
C2771      H2790   1.084       .  S
C2772      C2773   1.421       .  A
C2772      C2784   1.443       .  S
C2773      C2774   1.410       .  A
C2774      H2789   1.084       .  S
C2775      C2776   1.402       .  A
C2775      C2780   1.411       .  A
C2776      C2777   1.405       .  A
C2776      H2791   1.085       .  S
C2777      C2778   1.418       .  A
C2777      C2781   1.444       .  S
C2778      C2779   1.409       .  A
C2779      C2780   1.410       .  A
C2779      H2792   1.084       .  S
C2780      C2782   1.443       .  S
C2781      N2785   1.157       .  T
C2782      N2786   1.157       .  T
C2783      N2788   1.157       .  T
C2784      N2787   1.157       .  T
C2793      C2794   1.410       .  A
C2793      C2798   1.397       .  A
C2793      C2807   1.445       .  S
C2794      C2799   1.486       .  S
C2794      C2795   1.401       .  A
C2795      C2796   1.404       .  A
C2795      H2814   1.085       .  S
C2796      C2797   1.421       .  A
C2796      C2808   1.444       .  S
C2797      C2798   1.408       .  A
C2798      H2813   1.084       .  S
C2799      C2800   1.403       .  A
C2799      C2804   1.411       .  A
C2800      C2801   1.400       .  A
C2800      H2815   1.085       .  S
C2801      C2802   1.413       .  A
C2801      C2805   1.445       .  S
C2802      C2803   1.404       .  A
C2803      C2804   1.401       .  A
C2803      H2816   1.085       .  S
C2804      C2806   1.444       .  S
C2805      N2809   1.157       .  T
C2806      N2810   1.157       .  T
C2807      N2812   1.157       .  T
C2808      N2811   1.157       .  T
C2817      C2818   1.416       .  A
C2817      C2822   1.409   1_655  A
C2817      C2831   1.443       .  S
C2818      C2823   1.500   1_565  S
C2818      C2819   1.403       .  A
C2819      C2820   1.400   1_655  A
C2819      H2838   1.085   1_565  S
C2820      C2821   1.415       .  A
C2820      C2832   1.445       .  S
C2821      C2822   1.406       .  A
C2822      H2837   1.084       .  S
C2823      C2824   1.408       .  A
C2823      C2828   1.413       .  A
C2824      C2825   1.408       .  A
C2824      H2839   1.085   1_545  S
C2825      C2826   1.417       .  A
C2825      C2829   1.444       .  S
C2826      C2827   1.409       .  A
C2827      C2828   1.402       .  A
C2827      H2840   1.085       .  S
C2828      C2830   1.444       .  S
C2829      N2833   1.157       .  T
C2830      N2834   1.157       .  T
C2831      N2836   1.157       .  T
C2832      N2835   1.157       .  T
C2841      C2842   1.409   1_655  A
C2841      C2846   1.400       .  A
C2841      C2855   1.444       .  S
C2842      C2847   1.483       .  S
C2842      C2843   1.402   1_455  A
C2843      C2844   1.400       .  A
C2843      H2862   1.085   1_655  S
C2844      C2845   1.415       .  A
C2844      C2856   1.445       .  S
C2845      C2846   1.406       .  A
C2846      H2861   1.085       .  S
C2847      C2848   1.402       .  A
C2847      C2852   1.409       .  A
C2848      C2849   1.405       .  A
C2848      H2863   1.085       .  S
C2849      C2850   1.420       .  A
C2849      C2853   1.443       .  S
C2850      C2851   1.409       .  A
C2851      C2852   1.394       .  A
C2851      H2864   1.084       .  S
C2852      C2854   1.446       .  S
C2853      N2857   1.157       .  T
C2854      N2858   1.157   1_455  T
C2855      N2860   1.157       .  T
C2856      N2859   1.158       .  T
C2865      C2866   1.408       .  A
C2865      C2870   1.399       .  A
C2865      C2879   1.446       .  S
C2866      C2871   1.494       .  S
C2866      C2867   1.405       .  A
C2867      C2868   1.411       .  A
C2867      H2886   1.084       .  S
C2868      C2869   1.420       .  A
C2868      C2880   1.443       .  S
C2869      C2870   1.412       .  A
C2870      H2885   1.084       .  S
C2871      C2872   1.400       .  A
C2871      C2876   1.413       .  A
C2872      C2873   1.402       .  A
C2872      H2887   1.085       .  S
C2873      C2874   1.421       .  A
C2873      C2877   1.445       .  S
C2874      C2875   1.407       .  A
C2875      C2876   1.407       .  A
C2875      H2888   1.084       .  S
C2876      C2878   1.443       .  S
C2877      N2881   1.157       .  T
C2878      N2882   1.157       .  T
C2879      N2884   1.157       .  T
C2880      N2883   1.157       .  T
C2889      C2890   1.409       .  A
C2889      C2894   1.395       .  A
C2889      C2903   1.446       .  S
C2890      C2895   1.476       .  S
C2890      C2891   1.399       .  A
C2891      C2892   1.401       .  A
C2891      H2910   1.085       .  S
C2892      C2893   1.421       .  A
C2892      C2904   1.444       .  S
C2893      C2894   1.407       .  A
C2894      H2909   1.084       .  S
C2895      C2896   1.400       .  A
C2895      C2900   1.406       .  A
C2896      C2897   1.396       .  A
C2896      H2911   1.085       .  S
C2897      C2898   1.417       .  A
C2897      C2901   1.445       .  S
C2898      C2899   1.408       .  A
C2899      C2900   1.399       .  A
C2899      H2912   1.084       .  S
C2900      C2902   1.443       .  S
C2901      N2905   1.157   1_556  T
C2902      N2906   1.157       .  T
C2903      N2908   1.157       .  T
C2904      N2907   1.157       .  T
C2913      C2914   1.414       .  A
C2913      C2918   1.412       .  A
C2913      C2927   1.442       .  S
C2914      C2919   1.503       .  S
C2914      C2915   1.405       .  A
C2915      C2916   1.405       .  A
C2915      H2934   1.085       .  S
C2916      C2917   1.413       .  A
C2916      C2928   1.443       .  S
C2917      C2918   1.407       .  A
C2918      H2933   1.085       .  S
C2919      C2920   1.406       .  A
C2919      C2924   1.414       .  A
C2920      C2921   1.408       .  A
C2920      H2935   1.085       .  S
C2921      C2922   1.413       .  A
C2921      C2925   1.443       .  S
C2922      C2923   1.407       .  A
C2923      C2924   1.410       .  A
C2923      H2936   1.085       .  S
C2924      C2926   1.443       .  S
C2925      N2929   1.157       .  T
C2926      N2930   1.157       .  T
C2927      N2932   1.157       .  T
C2928      N2931   1.157       .  T
C2937      C2938   1.409       .  A
C2937      C2942   1.400       .  A
C2937      C2951   1.445       .  S
C2938      C2943   1.491   1_545  S
C2938      C2939   1.404       .  A
C2939      C2940   1.407       .  A
C2939      H2958   1.085   1_544  S
C2940      C2941   1.420       .  A
C2940      C2952   1.443   1_554  S
C2941      C2942   1.410       .  A
C2942      H2957   1.084       .  S
C2943      C2944   1.399   1_554  A
C2943      C2948   1.413       .  A
C2944      C2945   1.399       .  A
C2944      H2959   1.085   1_565  S
C2945      C2946   1.419       .  A
C2945      C2949   1.446       .  S
C2946      C2947   1.406   1_556  A
C2947      C2948   1.408       .  A
C2947      H2960   1.084       .  S
C2948      C2950   1.443       .  S
C2949      N2953   1.157       .  T
C2950      N2954   1.157       .  T
C2951      N2956   1.157       .  T
C2952      N2955   1.157       .  T
C2961      C2962   1.414   1_554  A
C2961      C2966   1.409       .  A
C2961      C2975   1.443       .  S
C2962      C2967   1.497       .  S
C2962      C2963   1.401       .  A
C2963      C2964   1.402       .  A
C2963      H2982   1.085       .  S
C2964      C2965   1.420   1_455  A
C2964      C2976   1.444   1_455  S
C2965      C2966   1.408   1_656  A
C2966      H2981   1.084       .  S
C2967      C2968   1.404       .  A
C2967      C2972   1.412   1_556  A
C2968      C2969   1.408       .  A
C2968      H2983   1.085       .  S
C2969      C2970   1.420   1_556  A
C2969      C2973   1.444       .  S
C2970      C2971   1.410       .  A
C2971      C2972   1.405       .  A
C2971      H2984   1.084       .  S
C2972      C2974   1.444       .  S
C2973      N2977   1.158       .  T
C2974      N2978   1.157       .  T
C2975      N2980   1.157       .  T
C2976      N2979   1.157       .  T
C2985      C2986   1.412       .  A
C2985      C2990   1.407       .  A
C2985      C2999   1.443       .  S
C2986      C2991   1.494       .  S
C2986      C2987   1.402       .  A
C2987      C2988   1.401       .  A
C2987      H3006   1.085       .  S
C2988      C2989   1.418       .  A
C2988      C3000   1.445   1_554  S
C2989      C2990   1.409       .  A
C2990      H3005   1.084       .  S
C2991      C2992   1.405       .  A
C2991      C2996   1.412       .  A
C2992      C2993   1.406       .  A
C2992      H3007   1.085       .  S
C2993      C2994   1.416       .  A
C2993      C2997   1.444       .  S
C2994      C2995   1.407       .  A
C2995      C2996   1.402       .  A
C2995      H3008   1.085       .  S
C2996      C2998   1.444       .  S
C2997      N3001   1.157       .  T
C2998      N3002   1.157       .  T
C2999      N3004   1.157       .  T
C3000      N3003   1.157       .  T
