geometry optimzed in LAMMPS
_audit_creation_date              2020-11-30 
_audit_creation_method            'lammps2cif' 
_symmetry_space_group_name_H-M    'P1' 
_symmetry_Int_Tables_number       1 
_symmetry_cell_setting            triclinic 
loop_ 
_symmetry_equiv_pos_as_xyz 
  x,y,z 
_cell_length_a                    40.02433131950916 
_cell_length_b                    37.20136331361715 
_cell_length_c                    41.83363277950488 
_cell_angle_alpha                 89.80772625295361 
_cell_angle_beta                  116.86306646754609 
_cell_angle_gamma                 90.59992697505288 
loop_ 
_atom_site_label 
_atom_site_type_symbol 
_atom_site_fract_x 
_atom_site_fract_y 
_atom_site_fract_z 
_atom_site_charge 
O1          O  0.06780846  0.16493865  0.11619862    -0.82930
C2          C  0.12563570  0.15553976  0.26002104     0.96420
O3          O  0.11867026  0.13567458  0.23355243    -0.72050
O4          O  0.08125026  0.11451050  0.16700697    -0.75640
Al5        Al  0.12296308  0.14891422  0.19265042     1.48980
C6          C  0.04656573  0.11718074  0.15877902     0.91670
O7          O  0.02522472  0.21465489  0.17335339    -0.81860
O8          O  0.08374193  0.26003165  0.18529781    -0.75420
Al9        Al  0.05063045  0.18953258  0.14832621     1.90120
O10         O  0.06962030  0.21474896  0.22887081    -0.74490
O11         O  0.15110195  0.23093384  0.21197888    -0.74340
O12         O  0.13502676  0.18839282  0.25979757    -0.80000
O13         O  0.17114954  0.17548182  0.21946526    -0.78200
O14         O  0.09416315  0.18657767  0.18649743    -1.14340
O15         O  0.12796389  0.15928790  0.15138601    -0.73530
C16         C  0.10073562  0.15733845  0.12056515     0.97180
C17         C  0.03658223  0.22076233  0.20671619     0.93580
Al18       Al  0.10936153  0.22103154  0.21900792     1.55560
O19         O  0.03306609  0.14720672  0.15946187    -0.78150
C20         C  0.17735924  0.20927886  0.21963438     0.97750
C21         C  0.06575999  0.26036550  0.15131250     0.92510
O22         O  0.06401423  0.23253617  0.13379581    -0.83470
O23         O  0.05482588  0.01915424  0.38587074    -0.82930
C24         C  0.13487759  0.08996686  0.01414516     0.96420
O25         O  0.14184896  0.05671137  0.01260455    -0.72050
O26         O  0.07511157  0.03580238  0.48590830    -0.75640
Al27       Al  0.11058896  0.02599931  0.47138194     1.48980
C28         C  0.04113442  0.03242688  0.46584133     0.91670
O29         O  0.04360354  0.10706850  0.42187039    -0.81860
O30         O  0.13081167  0.08418499  0.40387493    -0.75420
Al31       Al  0.05212652  0.06345657  0.40541582     1.90120
O32         O  0.09201208  0.13486371  0.42243982    -0.74490
O33         O  0.17489327  0.06615057  0.47078100    -0.74340
O34         O  0.12952310  0.11062823  0.48852971    -0.80000
O35         O  0.14896560  0.01274301  0.46030663    -0.78200
O36         O  0.09741871  0.06149829  0.44061043    -1.14340
O37         O  0.07802062  0.48925597  0.43644061    -0.73530
C38         C  0.05672108  0.49068423  0.40274514     0.97180
C39         C  0.05829973  0.13537196  0.41791499     0.93580
Al40       Al  0.12993549  0.09650938  0.44626347     1.55560
O41         O  0.02771171  0.04128762  0.43293567    -0.78150
C42         C  0.17782639  0.03202962  0.47000419     0.97750
C43         C  0.10287368  0.08896552  0.37420326     0.92630
O44         O  0.06961853  0.08540771  0.37149725    -0.83470
O45         O  0.43396429  0.25739815  0.35943859    -0.82930
C46         C  0.37098577  0.33313297  0.23217957     0.96420
O47         O  0.36224928  0.30029247  0.23344677    -0.72050
O48         O  0.42858202  0.27678119  0.26399444    -0.75640
Al49       Al  0.38976404  0.26878802  0.27475521     1.48980
C50         C  0.46181664  0.27108914  0.28567807     0.91670
O51         O  0.46616786  0.34246698  0.33472215    -0.81860
O52         O  0.37116784  0.33226669  0.34162480    -0.75420
Al53       Al  0.44808080  0.30049942  0.34521858     1.90120
O54         O  0.41784608  0.37577744  0.32460680    -0.74490
O55         O  0.32801045  0.31367380  0.27465970    -0.74340
O56         O  0.37917209  0.35337891  0.25859335    -0.80000
O57         O  0.34877411  0.25823859  0.28294723    -0.78200
O58         O  0.40472216  0.30359759  0.30689406    -1.14340
O59         O  0.41752582  0.23004198  0.30863149    -0.73530
C60         C  0.43479049  0.22987319  0.34270757     0.97180
C61         C  0.45280692  0.37281482  0.33376949     0.93580
Al62       Al  0.37587883  0.34117320  0.30016048     1.55560
O63         O  0.47344829  0.27604599  0.31938462    -0.78150
C64         C  0.32226369  0.27977156  0.27508968     0.97750
C65         C  0.39792897  0.33368163  0.37251624     0.92630
O66         O  0.43085503  0.32521462  0.37735095    -0.83470
O67         O  0.43013389  0.41892014  0.12881815    -0.82930
C68         C  0.37283666  0.40105187  0.48506383     0.96420
O69         O  0.38000080  0.38262804  0.01249327    -0.72050
O70         O  0.41851742  0.36561372  0.07986944    -0.75640
Al71       Al  0.37554353  0.39775107  0.05304906     1.48980
C72         C  0.45335856  0.37015370  0.08905810     0.91670
O73         O  0.47125541  0.46703668  0.06954794    -0.81860
O74         O  0.41325692  0.00958695  0.05358025    -0.75420
Al75       Al  0.44635689  0.44289240  0.09579493     1.90120
O76         O  0.42844102  0.46058117  0.01372762    -0.74490
O77         O  0.34729276  0.47841237  0.02918765    -0.74340
O78         O  0.36264164  0.43352464  0.48373526    -0.80000
O79         O  0.32666144  0.42317356  0.02543201    -0.78200
O80         O  0.40354401  0.43615628  0.05740214    -1.14340
O81         O  0.37040810  0.40896972  0.09418235    -0.73530
C82         C  0.39805744  0.40816376  0.12477790     0.97180
C83         C  0.46046579  0.47037128  0.03586265     0.93580
Al84       Al  0.38835355  0.46811591  0.02266299     1.55560
O85         O  0.46591134  0.40095773  0.08823626    -0.78150
C86         C  0.32062392  0.45711332  0.02272200     0.97750
C87         C  0.42916787  0.01306054  0.08743939     0.92630
O88         O  0.43028600  0.48665619  0.10669631    -0.83470
C89         C  0.42029534  0.35479199  0.43574287    -0.10290
C90         C  0.39029046  0.34850782  0.40182841     0.05900
C91         C  0.35387256  0.35989879  0.39579537    -0.04060
C92         C  0.34895715  0.37816312  0.42263572    -0.08510
C93         C  0.37908474  0.38453173  0.45610663     0.05020
C94         C  0.41492193  0.37212186  0.46273939    -0.03530
Br95       Br  0.45816064  0.37902282  0.00792716    -0.03230
H96         H  0.44827652  0.34665420  0.44127057     0.08930
H97         H  0.32120659  0.38660587  0.41764957     0.06950
Br98       Br  0.30852967  0.35133902  0.35237745    -0.03660
C99         C  0.35535060  0.38671615  0.14987162    -0.10290
C100        C  0.39233379  0.39058412  0.15411468     0.05900
C101        C  0.42137043  0.37272023  0.18316631    -0.04060
C102        C  0.41301507  0.35208790  0.20678557    -0.08510
C103        C  0.37615334  0.34820638  0.20213054     0.05020
C104        C  0.34725202  0.36598824  0.17362723    -0.03530
Br105      Br  0.29664073  0.36325119  0.16696247    -0.03230
H106        H  0.33237352  0.39973100  0.12771428     0.08930
H107        H  0.43573700  0.33949780  0.22957112     0.06950
Br108      Br  0.47278365  0.37380369  0.19184482    -0.03660
C109        C  0.21516315  0.47524230  0.48441533    -0.10290
C110        C  0.21453801  0.01334676  0.48275474     0.05900
C111        C  0.24896877  0.03184930  0.49526286    -0.04060
C112        C  0.28228148  0.01257469  0.00879523    -0.08510
C113        C  0.28315005  0.47448262  0.01021651     0.05020
C114        C  0.24878093  0.45587381  0.99793217    -0.03530
Br115      Br  0.24549486  0.40444349  0.99892176    -0.03230
H116        H  0.18923299  0.46009099  0.47539128     0.08930
H117        H  0.30797037  0.02814999  0.01801557     0.06950
Br118      Br  0.25354491  0.08332048  0.49475461    -0.03660
C119        C  0.01578584  0.47310382  0.02521392    -0.10290
C120        C  0.48265619  0.48862619  0.02080912     0.05900
C121        C  0.46771091  0.01799149  0.49680326    -0.04060
C122        C  0.48615800  0.03108043  0.47773658    -0.08510
C123        C  0.01926384  0.01542844  0.48201899     0.05020
C124        C  0.03396909  0.48581198  0.00584243    -0.03530
Br125      Br  0.07721495  0.45908153  0.01198892    -0.03230
H126        H  0.02658227  0.44987408  0.04247346     0.08930
H127        H  0.47517334  0.05413960  0.46027987     0.06950
Br128      Br  0.42304514  0.04284222  0.48927437    -0.03660
C129        C  0.04352882  0.42850105  0.37756183    -0.10290
C130        C  0.03009541  0.46105290  0.38338561     0.05900
C131        C  0.99065379  0.46541878  0.36887109    -0.04060
C132        C  0.46623638  0.43684750  0.35184611    -0.08510
C133        C  0.47950899  0.40383353  0.34704565     0.05020
C134        C  0.01880971  0.40039654  0.35870326    -0.03530
Br135      Br  0.04147490  0.35919294  0.34899710    -0.03230
H136        H  0.07336140  0.42521349  0.38698495     0.08930
H137        H  0.43648410  0.44045401  0.34269697     0.06950
Br138      Br  0.46629432  0.50878225  0.37071585    -0.03660
C139        C  0.00701578  0.17276854  0.41696370    -0.10290
C140        C  0.03259107  0.16607007  0.40310982     0.05900
C141        C  0.02467188  0.17996358  0.36916530    -0.04060
C142        C  0.49069189  0.19713716  0.34872589    -0.08510
C143        C  0.46485716  0.20352268  0.36216243     0.05020
C144        C  0.47408044  0.19223233  0.39734817    -0.03530
Br145      Br  0.44203858  0.20160075  0.41924659    -0.03230
H146        H  0.01213622  0.16172379  0.44277878     0.08930
H147        H  0.48544375  0.20712673  0.32268027     0.06950
Br148      Br  0.05877008  0.17631405  0.34889739    -0.03660
C149        C  0.07990300  0.10809862  0.31061084    -0.10290
C150        C  0.11017104  0.10285723  0.34435258     0.05900
C151        C  0.14643838  0.11504339  0.34983000    -0.04060
C152        C  0.15076393  0.13357877  0.32269039    -0.08510
C153        C  0.12012716  0.13976318  0.28970023     0.05020
C154        C  0.08461062  0.12634221  0.28364806    -0.03530
Br155      Br  0.04077100  0.13365912  0.23958870    -0.03230
H156        H  0.05209141  0.09917963  0.30549958     0.08930
H157        H  0.17836450  0.14250267  0.32709045     0.06950
Br158      Br  0.19229054  0.10786528  0.39289735    -0.03660
C159        C  0.08981961  0.11501442  0.03292574    -0.10290
C160        C  0.12688104  0.10476672  0.04253362     0.05900
C161        C  0.15519681  0.11461394  0.07615042    -0.04060
C162        C  0.14601948  0.13299748  0.10024095    -0.08510
C163        C  0.10858699  0.14239041  0.09143831     0.05020
C164        C  0.08039697  0.13368072  0.05674306    -0.03530
Br165      Br  0.02865493  0.14603826  0.03965699    -0.03230
H166        H  0.06796058  0.10886293  0.00624013     0.08930
H167        H  0.16863490  0.13967840  0.12630188     0.06950
Br168      Br  0.20675631  0.10503037  0.08931404    -0.03660
C169        C  0.48973304  0.08426517  0.15335474    -0.10290
C170        C  0.01953934  0.08704647  0.14415764     0.05900
C171        C  0.01743282  0.06695011  0.11494741    -0.04060
C172        C  0.48529507  0.04672416  0.09449266    -0.08510
C173        C  0.45623471  0.04277139  0.10433292     0.05020
C174        C  0.45907633  0.06122042  0.13466600    -0.03530
Br175      Br  0.42102025  0.05691732  0.15034439    -0.03230
H176        H  0.48990913  0.10040810  0.17483275     0.08930
H177        H  0.48401746  0.03277689  0.07154077     0.06950
Br178      Br  0.05694291  0.06615241  0.10101017    -0.03660
C179        C  0.50064296  0.27873040  0.11256333    -0.10290
C180        C  0.03849202  0.28896904  0.13293737     0.05900
C181        C  0.04788169  0.32547654  0.13807738    -0.04060
C182        C  0.01966050  0.35104609  0.12300851    -0.08510
C183        C  0.48144191  0.34098842  0.10324525     0.05020
C184        C  0.47215592  0.30417538  0.09826653    -0.03530
Br185      Br  0.42163875  0.28655904  0.07265935    -0.03230
H186        H  0.49282616  0.25054443  0.10872754     0.08930
H187        H  0.02786773  0.37913245  0.12749558     0.06950
Br188      Br  0.09881747  0.34148703  0.16448635    -0.03660
C189        C  0.25480516  0.27576735  0.23131978    -0.10290
C190        C  0.28442020  0.26366075  0.26312471     0.05900
C191        C  0.27910922  0.23199487  0.27928556    -0.04060
C192        C  0.24490622  0.21310593  0.26350293    -0.08510
C193        C  0.21529757  0.22520786  0.23167728     0.05020
C194        C  0.22063128  0.25688052  0.21553128    -0.03530
Br195      Br  0.18271326  0.27477282  0.17082173    -0.03230
H196        H  0.25874110  0.29918342  0.21787225     0.08930
H197        H  0.24094440  0.18971202  0.27695516     0.06950
Br198      Br  0.31707504  0.21419771  0.32401351    -0.03660
C199        C  0.48599246  0.21521587  0.22439138    -0.10290
C200        C  0.01349329  0.23651170  0.22192238     0.05900
C201        C  0.02598809  0.26816475  0.24302183    -0.04060
C202        C  0.01140456  0.27755245  0.26651524    -0.08510
C203        C  0.48429651  0.25592256  0.26944974     0.05020
C204        C  0.47125187  0.22461687  0.24768889    -0.03530
Br205      Br  0.43315084  0.19310855  0.24805489    -0.03230
H206        H  0.47699655  0.19039798  0.20921242     0.08930
H207        H  0.02002778  0.30262317  0.28129119     0.06950
Br208      Br  0.06236440  0.30031383  0.24030649    -0.03660
O209        O  0.06780846  0.16493865  0.61619861    -0.82930
C210        C  0.12563569  0.15553976  0.76002104     0.96420
O211        O  0.11867025  0.13567457  0.73355243    -0.72050
O212        O  0.08125026  0.11451050  0.66700696    -0.75640
Al213      Al  0.12296308  0.14891421  0.69265041     1.48980
C214        C  0.04656573  0.11718074  0.65877901     0.91670
O215        O  0.02522472  0.21465488  0.67335338    -0.81860
O216        O  0.08374193  0.26003165  0.68529781    -0.75420
Al217      Al  0.05063044  0.18953258  0.64832621     1.90120
O218        O  0.06962030  0.21474896  0.72887080    -0.74490
O219        O  0.15110194  0.23093383  0.71197887    -0.74340
O220        O  0.13502675  0.18839281  0.75979756    -0.80000
O221        O  0.17114953  0.17548181  0.71946526    -0.78200
O222        O  0.09416315  0.18657767  0.68649743    -1.14340
O223        O  0.12796389  0.15928790  0.65138600    -0.73530
C224        C  0.10073562  0.15733845  0.62056514     0.97180
C225        C  0.03658223  0.22076232  0.70671618     0.93580
Al226      Al  0.10936152  0.22103154  0.71900792     1.55560
O227        O  0.03306608  0.14720672  0.65946186    -0.78150
C228        C  0.17735924  0.20927885  0.71963437     0.97750
C229        C  0.06575999  0.26036549  0.65131250     0.92510
O230        O  0.06401423  0.23253617  0.63379581    -0.83470
O231        O  0.05482587  0.01915425  0.88587072    -0.82930
C232        C  0.13487761  0.08996688  0.51414516     0.96420
O233        O  0.14184898  0.05671139  0.51260455    -0.72050
O234        O  0.07511155  0.03580234  0.98590828    -0.75640
Al235      Al  0.11058895  0.02599930  0.97138193     1.48980
C236        C  0.04113440  0.03242686  0.96584131     0.91670
O237        O  0.04360353  0.10706849  0.92187039    -0.81860
O238        O  0.13081167  0.08418500  0.90387493    -0.75420
Al239      Al  0.05212651  0.06345657  0.90541582     1.90120
O240        O  0.09201207  0.13486370  0.92243982    -0.74490
O241        O  0.17489326  0.06615057  0.97078100    -0.74340
O242        O  0.12952309  0.11062822  0.98852972    -0.80000
O243        O  0.14896560  0.01274300  0.96030663    -0.78200
O244        O  0.09741870  0.06149828  0.94061043    -1.14340
O245        O  0.07802061  0.48925595  0.93644059    -0.73530
C246        C  0.05672107  0.49068423  0.90274512     0.97180
C247        C  0.05829973  0.13537195  0.91791499     0.93580
Al248      Al  0.12993548  0.09650938  0.94626348     1.55560
O249        O  0.02771170  0.04128761  0.93293565    -0.78150
C250        C  0.17782638  0.03202961  0.97000419     0.97750
C251        C  0.10287368  0.08896553  0.87420326     0.92630
O252        O  0.06961852  0.08540772  0.87149725    -0.83470
O253        O  0.43396429  0.25739815  0.85943859    -0.82930
C254        C  0.37098577  0.33313296  0.73217957     0.96420
O255        O  0.36224928  0.30029247  0.73344677    -0.72050
O256        O  0.42858202  0.27678119  0.76399444    -0.75640
Al257      Al  0.38976404  0.26878802  0.77475520     1.48980
C258        C  0.46181664  0.27108914  0.78567806     0.91670
O259        O  0.46616786  0.34246698  0.83472214    -0.81860
O260        O  0.37116784  0.33226668  0.84162480    -0.75420
Al261      Al  0.44808080  0.30049942  0.84521858     1.90120
O262        O  0.41784607  0.37577744  0.82460680    -0.74490
O263        O  0.32801044  0.31367379  0.77465969    -0.74340
O264        O  0.37917208  0.35337890  0.75859334    -0.80000
O265        O  0.34877411  0.25823858  0.78294723    -0.78200
O266        O  0.40472216  0.30359759  0.80689405    -1.14340
O267        O  0.41752582  0.23004198  0.80863149    -0.73530
C268        C  0.43479049  0.22987319  0.84270756     0.97180
C269        C  0.45280691  0.37281481  0.83376948     0.93580
Al270      Al  0.37587883  0.34117319  0.80016047     1.55560
O271        O  0.47344829  0.27604599  0.81938462    -0.78150
C272        C  0.32226369  0.27977155  0.77508967     0.97750
C273        C  0.39792898  0.33368163  0.87251623     0.92630
O274        O  0.43085503  0.32521463  0.87735094    -0.83470
O275        O  0.43013389  0.41892015  0.62881815    -0.82930
C276        C  0.37283667  0.40105189  0.98506383     0.96420
O277        O  0.38000079  0.38262802  0.51249327    -0.72050
O278        O  0.41851742  0.36561372  0.57986945    -0.75640
Al279      Al  0.37554353  0.39775107  0.55304906     1.48980
C280        C  0.45335856  0.37015370  0.58905810     0.91670
O281        O  0.47125540  0.46703668  0.56954792    -0.81860
O282        O  0.41325691  0.00958694  0.55358023    -0.75420
Al283      Al  0.44635688  0.44289240  0.59579492     1.90120
O284        O  0.42844100  0.46058115  0.51372760    -0.74490
O285        O  0.34729275  0.47841237  0.52918765    -0.74340
O286        O  0.36264166  0.43352465  0.98373526    -0.80000
O287        O  0.32666143  0.42317355  0.52543202    -0.78200
O288        O  0.40354401  0.43615627  0.55740214    -1.14340
O289        O  0.37040810  0.40896972  0.59418235    -0.73530
C290        C  0.39805744  0.40816377  0.62477791     0.97180
C291        C  0.46046577  0.47037126  0.53586263     0.93580
Al292      Al  0.38835354  0.46811589  0.52266298     1.55560
O293        O  0.46591133  0.40095773  0.58823626    -0.78150
C294        C  0.32062391  0.45711332  0.52272201     0.97750
C295        C  0.42916787  0.01306053  0.58743937     0.92630
O296        O  0.43028600  0.48665619  0.60669629    -0.83470
C297        C  0.42029535  0.35479200  0.93574287    -0.10290
C298        C  0.39029047  0.34850783  0.90182840     0.05900
C299        C  0.35387257  0.35989881  0.89579537    -0.04060
C300        C  0.34895716  0.37816314  0.92263572    -0.08510
C301        C  0.37908476  0.38453175  0.95610663     0.05020
C302        C  0.41492194  0.37212187  0.96273939    -0.03530
Br303      Br  0.45816063  0.37902280  0.50792717    -0.03230
H304        H  0.44827653  0.34665421  0.94127057     0.08930
H305        H  0.32120660  0.38660590  0.91764957     0.06950
Br306      Br  0.30852967  0.35133904  0.85237745    -0.03660
C307        C  0.35535061  0.38671616  0.64987163    -0.10290
C308        C  0.39233379  0.39058413  0.65411468     0.05900
C309        C  0.42137043  0.37272023  0.68316631    -0.04060
C310        C  0.41301507  0.35208789  0.70678556    -0.08510
C311        C  0.37615334  0.34820638  0.70213054     0.05020
C312        C  0.34725202  0.36598825  0.67362723    -0.03530
Br313      Br  0.29664073  0.36325121  0.66696248    -0.03230
H314        H  0.33237353  0.39973102  0.62771429     0.08930
H315        H  0.43573700  0.33949779  0.72957111     0.06950
Br316      Br  0.47278365  0.37380369  0.69184482    -0.03660
C317        C  0.21516315  0.47524229  0.98441533    -0.10290
C318        C  0.21453801  0.01334676  0.98275474     0.05900
C319        C  0.24896876  0.03184930  0.99526286    -0.04060
C320        C  0.28228148  0.01257468  0.50879523    -0.08510
C321        C  0.28315005  0.47448262  0.51021651     0.05020
C322        C  0.24878092  0.45587381  0.49793217    -0.03530
Br323      Br  0.24549485  0.40444350  0.49892176    -0.03230
H324        H  0.18923300  0.46009098  0.97539129     0.08930
H325        H  0.30797038  0.02814998  0.51801556     0.06950
Br326      Br  0.25354490  0.08332048  0.99475462    -0.03660
C327        C  0.01578588  0.47310388  0.52521400    -0.10290
C328        C  0.48265616  0.48862618  0.52080909     0.05900
C329        C  0.46771096  0.01799155  0.99680333    -0.04060
C330        C  0.48615803  0.03108047  0.97773663    -0.08510
C331        C  0.01926381  0.01542842  0.98201895     0.05020
C332        C  0.03396917  0.48581206  0.50584254    -0.03530
Br333      Br  0.07721513  0.45908170  0.51198919    -0.03230
H334        H  0.02658235  0.44987419  0.54247360     0.08930
H335        H  0.47517340  0.05413969  0.96027997     0.06950
Br336      Br  0.42304526  0.04284234  0.98927454    -0.03660
C337        C  0.04352881  0.42850105  0.87756179    -0.10290
C338        C  0.03009540  0.46105290  0.88338559     0.05900
C339        C  0.99065378  0.46541878  0.86887108    -0.04060
C340        C  0.46623637  0.43684749  0.85184611    -0.08510
C341        C  0.47950898  0.40383353  0.84704563     0.05020
C342        C  0.01880969  0.40039654  0.85870322    -0.03530
Br343      Br  0.04147488  0.35919296  0.84899703    -0.03230
H344        H  0.07336139  0.42521350  0.88698489     0.08930
H345        H  0.43648410  0.44045400  0.84269698     0.06950
Br346      Br  0.46629432  0.50878224  0.87071587    -0.03660
C347        C  0.00701577  0.17276852  0.91696370    -0.10290
C348        C  0.03259107  0.16607007  0.90310982     0.05900
C349        C  0.02467189  0.17996358  0.86916531    -0.04060
C350        C  0.49069190  0.19713717  0.84872590    -0.08510
C351        C  0.46485716  0.20352268  0.86216242     0.05020
C352        C  0.47408043  0.19223232  0.89734816    -0.03530
Br353      Br  0.44203855  0.20160072  0.91924656    -0.03230
H354        H  0.01213620  0.16172377  0.94277877     0.08930
H355        H  0.48544377  0.20712674  0.82268028     0.06950
Br356      Br  0.05877010  0.17631406  0.84889741    -0.03660
C357        C  0.07990299  0.10809862  0.81061084    -0.10290
C358        C  0.11017104  0.10285723  0.84435258     0.05900
C359        C  0.14643837  0.11504339  0.84983000    -0.04060
C360        C  0.15076393  0.13357877  0.82269039    -0.08510
C361        C  0.12012716  0.13976317  0.78970023     0.05020
C362        C  0.08461062  0.12634220  0.78364806    -0.03530
Br363      Br  0.04077100  0.13365910  0.73958870    -0.03230
H364        H  0.05209141  0.09917964  0.80549958     0.08930
H365        H  0.17836450  0.14250266  0.82709045     0.06950
Br366      Br  0.19229054  0.10786528  0.89289735    -0.03660
C367        C  0.08981963  0.11501444  0.53292574    -0.10290
C368        C  0.12688105  0.10476674  0.54253362     0.05900
C369        C  0.15519682  0.11461395  0.57615042    -0.04060
C370        C  0.14601949  0.13299749  0.60024095    -0.08510
C371        C  0.10858700  0.14239041  0.59143831     0.05020
C372        C  0.08039698  0.13368073  0.55674306    -0.03530
Br373      Br  0.02865494  0.14603826  0.53965698    -0.03230
H374        H  0.06796059  0.10886295  0.50624012     0.08930
H375        H  0.16863491  0.13967842  0.62630188     0.06950
Br376      Br  0.20675632  0.10503040  0.58931404    -0.03660
C377        C  0.48973303  0.08426516  0.65335473    -0.10290
C378        C  0.01953934  0.08704646  0.64415762     0.05900
C379        C  0.01743281  0.06695011  0.61494739    -0.04060
C380        C  0.48529506  0.04672416  0.59449264    -0.08510
C381        C  0.45623470  0.04277139  0.60433290     0.05020
C382        C  0.45907632  0.06122041  0.63466598    -0.03530
Br383      Br  0.42102025  0.05691731  0.65034437    -0.03230
H384        H  0.48990913  0.10040809  0.67483273     0.08930
H385        H  0.48401745  0.03277688  0.57154074     0.06950
Br386      Br  0.05694291  0.06615240  0.60101015    -0.03660
C387        C  0.50064295  0.27873040  0.61256332    -0.10290
C388        C  0.03849202  0.28896904  0.63293737     0.05900
C389        C  0.04788168  0.32547653  0.63807739    -0.04060
C390        C  0.01966050  0.35104609  0.62300852    -0.08510
C391        C  0.48144190  0.34098841  0.60324525     0.05020
C392        C  0.47215592  0.30417538  0.59826653    -0.03530
Br393      Br  0.42163875  0.28655904  0.57265933    -0.03230
H394        H  0.49282616  0.25054443  0.60872753     0.08930
H395        H  0.02786772  0.37913245  0.62749559     0.06950
Br396      Br  0.09881747  0.34148703  0.66448636    -0.03660
C397        C  0.25480516  0.27576734  0.73131978    -0.10290
C398        C  0.28442020  0.26366074  0.76312471     0.05900
C399        C  0.27910922  0.23199486  0.77928555    -0.04060
C400        C  0.24490622  0.21310592  0.76350292    -0.08510
C401        C  0.21529757  0.22520786  0.73167728     0.05020
C402        C  0.22063128  0.25688051  0.71553128    -0.03530
Br403      Br  0.18271326  0.27477282  0.67082172    -0.03230
H404        H  0.25874110  0.29918341  0.71787224     0.08930
H405        H  0.24094439  0.18971202  0.77695516     0.06950
Br406      Br  0.31707504  0.21419771  0.82401351    -0.03660
C407        C  0.48599246  0.21521586  0.72439138    -0.10290
C408        C  0.01349329  0.23651169  0.72192237     0.05900
C409        C  0.02598808  0.26816475  0.74302182    -0.04060
C410        C  0.01140455  0.27755245  0.76651523    -0.08510
C411        C  0.48429651  0.25592256  0.76944974     0.05020
C412        C  0.47125188  0.22461686  0.74768890    -0.03530
Br413      Br  0.43315086  0.19310853  0.74805491    -0.03230
H414        H  0.47699656  0.19039797  0.70921242     0.08930
H415        H  0.02002776  0.30262318  0.78129117     0.06950
Br416      Br  0.06236438  0.30031383  0.74030646    -0.03660
O417        O  0.06780845  0.66493865  0.11619862    -0.82930
C418        C  0.12563569  0.65553977  0.26002104     0.96420
O419        O  0.11867025  0.63567459  0.23355244    -0.72050
O420        O  0.08125025  0.61451050  0.16700698    -0.75640
Al421      Al  0.12296308  0.64891422  0.19265042     1.48980
C422        C  0.04656573  0.61718075  0.15877902     0.91670
O423        O  0.02522472  0.71465490  0.17335338    -0.81860
O424        O  0.08374193  0.76003166  0.18529781    -0.75420
Al425      Al  0.05063044  0.68953258  0.14832621     1.90120
O426        O  0.06962029  0.71474897  0.22887080    -0.74490
O427        O  0.15110194  0.73093384  0.21197888    -0.74340
O428        O  0.13502674  0.68839283  0.25979757    -0.80000
O429        O  0.17114953  0.67548182  0.21946527    -0.78200
O430        O  0.09416315  0.68657767  0.18649743    -1.14340
O431        O  0.12796389  0.65928789  0.15138601    -0.73530
C432        C  0.10073562  0.65733845  0.12056515     0.97180
C433        C  0.03658222  0.72076234  0.20671618     0.93580
Al434      Al  0.10936152  0.72103155  0.21900792     1.55560
O435        O  0.03306608  0.64720673  0.15946187    -0.78150
C436        C  0.17735923  0.70927886  0.21963438     0.97750
C437        C  0.06575999  0.76036550  0.15131250     0.92510
O438        O  0.06401424  0.73253617  0.13379581    -0.83470
O439        O  0.05482587  0.51915424  0.38587074    -0.82930
C440        C  0.13487759  0.58996685  0.01414517     0.96420
O441        O  0.14184896  0.55671136  0.01260456    -0.72050
O442        O  0.07511158  0.53580237  0.48590830    -0.75640
Al443      Al  0.11058896  0.52599931  0.47138194     1.48980
C444        C  0.04113442  0.53242688  0.46584134     0.91670
O445        O  0.04360354  0.60706849  0.42187040    -0.81860
O446        O  0.13081167  0.58418499  0.40387493    -0.75420
Al447      Al  0.05212651  0.56345657  0.40541583     1.90120
O448        O  0.09201207  0.63486371  0.42243982    -0.74490
O449        O  0.17489327  0.56615057  0.47078099    -0.74340
O450        O  0.12952310  0.61062823  0.48852972    -0.80000
O451        O  0.14896560  0.51274301  0.46030663    -0.78200
O452        O  0.09741870  0.56149829  0.44061043    -1.14340
O453        O  0.07802062  0.98925597  0.43644061    -0.73530
C454        C  0.05672109  0.99068423  0.40274514     0.97180
C455        C  0.05829973  0.63537196  0.41791500     0.93580
Al456      Al  0.12993549  0.59650938  0.44626347     1.55560
O457        O  0.02771171  0.54128762  0.43293568    -0.78150
C458        C  0.17782638  0.53202962  0.47000418     0.97750
C459        C  0.10287367  0.58896553  0.37420326     0.92630
O460        O  0.06961852  0.58540772  0.37149726    -0.83470
O461        O  0.43396429  0.75739815  0.35943859    -0.82930
C462        C  0.37098577  0.83313297  0.23217957     0.96420
O463        O  0.36224928  0.80029247  0.23344677    -0.72050
O464        O  0.42858202  0.77678120  0.26399444    -0.75640
Al465      Al  0.38976404  0.76878802  0.27475520     1.48980
C466        C  0.46181664  0.77108915  0.28567806     0.91670
O467        O  0.46616786  0.84246698  0.33472215    -0.81860
O468        O  0.37116783  0.83226668  0.34162479    -0.75420
Al469      Al  0.44808080  0.80049942  0.34521858     1.90120
O470        O  0.41784607  0.87577744  0.32460680    -0.74490
O471        O  0.32801044  0.81367379  0.27465969    -0.74340
O472        O  0.37917209  0.85337891  0.25859334    -0.80000
O473        O  0.34877411  0.75823858  0.28294723    -0.78200
O474        O  0.40472216  0.80359759  0.30689405    -1.14340
O475        O  0.41752582  0.73004198  0.30863148    -0.73530
C476        C  0.43479048  0.72987319  0.34270756     0.97180
C477        C  0.45280691  0.87281481  0.33376949     0.93580
Al478      Al  0.37587883  0.84117320  0.30016048     1.55560
O479        O  0.47344829  0.77604599  0.31938462    -0.78150
C480        C  0.32226369  0.77977155  0.27508967     0.97750
C481        C  0.39792897  0.83368163  0.37251623     0.92630
O482        O  0.43085502  0.82521462  0.37735094    -0.83470
O483        O  0.43013389  0.91892015  0.12881815    -0.82930
C484        C  0.37283665  0.90105185  0.48506383     0.96420
O485        O  0.38000080  0.88262803  0.01249327    -0.72050
O486        O  0.41851742  0.86561372  0.07986945    -0.75640
Al487      Al  0.37554353  0.89775107  0.05304906     1.48980
C488        C  0.45335856  0.87015370  0.08905810     0.91670
O489        O  0.47125540  0.96703668  0.06954793    -0.81860
O490        O  0.41325692  0.50958696  0.05358026    -0.75420
Al491      Al  0.44635688  0.94289240  0.09579493     1.90120
O492        O  0.42844101  0.96058116  0.01372761    -0.74490
O493        O  0.34729275  0.97841237  0.02918764    -0.74340
O494        O  0.36264163  0.93352462  0.48373526    -0.80000
O495        O  0.32666143  0.92317356  0.02543202    -0.78200
O496        O  0.40354401  0.93615628  0.05740214    -1.14340
O497        O  0.37040810  0.90896972  0.09418235    -0.73530
C498        C  0.39805744  0.90816377  0.12477791     0.97180
C499        C  0.46046578  0.97037127  0.03586264     0.93580
Al500      Al  0.38835355  0.96811590  0.02266299     1.55560
O501        O  0.46591134  0.90095773  0.08823626    -0.78150
C502        C  0.32062391  0.95711332  0.02272200     0.97750
C503        C  0.42916788  0.51306054  0.08743940     0.92630
O504        O  0.43028600  0.98665619  0.10669630    -0.83470
C505        C  0.42029533  0.85479197  0.43574287    -0.10290
C506        C  0.39029045  0.84850782  0.40182840     0.05900
C507        C  0.35387256  0.85989880  0.39579536    -0.04060
C508        C  0.34895715  0.87816312  0.42263572    -0.08510
C509        C  0.37908474  0.88453172  0.45610663     0.05020
C510        C  0.41492192  0.87212183  0.46273939    -0.03530
Br511      Br  0.45816063  0.87902279  0.00792717    -0.03230
H512        H  0.44827652  0.84665418  0.44127058     0.08930
H513        H  0.32120659  0.88660588  0.41764957     0.06950
Br514      Br  0.30852967  0.85133906  0.35237744    -0.03660
C515        C  0.35535061  0.88671620  0.14987165    -0.10290
C516        C  0.39233379  0.89058413  0.15411468     0.05900
C517        C  0.42137042  0.87272019  0.18316628    -0.04060
C518        C  0.41301506  0.85208786  0.20678553    -0.08510
C519        C  0.37615333  0.84820639  0.20213054     0.05020
C520        C  0.34725202  0.86598830  0.17362725    -0.03530
Br521      Br  0.29664075  0.86325132  0.16696254    -0.03230
H522        H  0.33237354  0.89973110  0.12771434     0.08930
H523        H  0.43573698  0.83949772  0.22957106     0.06950
Br524      Br  0.47278363  0.87380359  0.19184475    -0.03660
C525        C  0.21516315  0.97524229  0.48441535    -0.10290
C526        C  0.21453801  0.51334676  0.48275473     0.05900
C527        C  0.24896877  0.53184930  0.49526287    -0.04060
C528        C  0.28228148  0.51257469  0.00879524    -0.08510
C529        C  0.28315005  0.97448262  0.01021651     0.05020
C530        C  0.24878092  0.95587381  0.99793218    -0.03530
Br531      Br  0.24549486  0.90444350  0.99892180    -0.03230
H532        H  0.18923299  0.96009098  0.47539133     0.08930
H533        H  0.30797038  0.52814999  0.01801559     0.06950
Br534      Br  0.25354491  0.58332048  0.49475465    -0.03660
C535        C  0.01578584  0.97310383  0.02521393    -0.10290
C536        C  0.48265618  0.98862618  0.02080910     0.05900
C537        C  0.46771093  0.51799152  0.49680328    -0.04060
C538        C  0.48615801  0.53108044  0.47773660    -0.08510
C539        C  0.01926384  0.51542844  0.48201900     0.05020
C540        C  0.03396910  0.98581200  0.00584244    -0.03530
Br541      Br  0.07721499  0.95908157  0.01198897    -0.03230
H542        H  0.02658228  0.94987410  0.04247348     0.08930
H543        H  0.47517336  0.55413963  0.46027990     0.06950
Br544      Br  0.42304518  0.54284226  0.48927442    -0.03660
C545        C  0.04352883  0.92850105  0.37756184    -0.10290
C546        C  0.03009541  0.96105290  0.38338561     0.05900
C547        C  0.99065379  0.96541879  0.36887108    -0.04060
C548        C  0.46623638  0.93684750  0.35184612    -0.08510
C549        C  0.47950899  0.90383353  0.34704565     0.05020
C550        C  0.01880971  0.90039653  0.35870327    -0.03530
Br551      Br  0.04147491  0.85919293  0.34899712    -0.03230
H552        H  0.07336141  0.92521349  0.38698496     0.08930
H553        H  0.43648410  0.94045401  0.34269698     0.06950
Br554      Br  0.46629432  0.00878225  0.37071586    -0.03660
C555        C  0.00701576  0.67276852  0.41696369    -0.10290
C556        C  0.03259107  0.66607007  0.40310983     0.05900
C557        C  0.02467189  0.67996359  0.36916531    -0.04060
C558        C  0.49069190  0.69713717  0.34872590    -0.08510
C559        C  0.46485716  0.70352268  0.36216242     0.05020
C560        C  0.47408042  0.69223232  0.39734816    -0.03530
Br561      Br  0.44203854  0.70160071  0.41924655    -0.03230
H562        H  0.01213619  0.66172376  0.44277877     0.08930
H563        H  0.48544377  0.70712675  0.32268028     0.06950
Br564      Br  0.05877012  0.67631408  0.34889743    -0.03660
C565        C  0.07990298  0.60809864  0.31061084    -0.10290
C566        C  0.11017103  0.60285723  0.34435258     0.05900
C567        C  0.14643837  0.61504337  0.34982999    -0.04060
C568        C  0.15076393  0.63357876  0.32269039    -0.08510
C569        C  0.12012715  0.63976319  0.28970023     0.05020
C570        C  0.08461061  0.62634223  0.28364807    -0.03530
Br571      Br  0.04077099  0.63365914  0.23958871    -0.03230
H572        H  0.05209139  0.59917966  0.30549959     0.08930
H573        H  0.17836450  0.64250264  0.32709045     0.06950
Br574      Br  0.19229054  0.60786523  0.39289733    -0.03660
C575        C  0.08981961  0.61501440  0.03292575    -0.10290
C576        C  0.12688104  0.60476671  0.04253363     0.05900
C577        C  0.15519682  0.61461393  0.07615043    -0.04060
C578        C  0.14601948  0.63299748  0.10024096    -0.08510
C579        C  0.10858699  0.64239040  0.09143831     0.05020
C580        C  0.08039697  0.63368070  0.05674307    -0.03530
Br581      Br  0.02865493  0.64603822  0.03965700    -0.03230
H582        H  0.06796058  0.60886290  0.00624014     0.08930
H583        H  0.16863490  0.63967841  0.12630188     0.06950
Br584      Br  0.20675631  0.60503039  0.08931404    -0.03660
C585        C  0.48973303  0.58426518  0.15335475    -0.10290
C586        C  0.01953934  0.58704647  0.14415765     0.05900
C587        C  0.01743282  0.56695011  0.11494742    -0.04060
C588        C  0.48529508  0.54672415  0.09449269    -0.08510
C589        C  0.45623472  0.54277139  0.10433294     0.05020
C590        C  0.45907633  0.56122042  0.13466601    -0.03530
Br591      Br  0.42102025  0.55691734  0.15034439    -0.03230
H592        H  0.48990912  0.60040812  0.17483274     0.08930
H593        H  0.48401748  0.53277688  0.07154081     0.06950
Br594      Br  0.05694291  0.56615240  0.10101019    -0.03660
C595        C  0.50064296  0.77873041  0.11256331    -0.10290
C596        C  0.03849202  0.78896905  0.13293736     0.05900
C597        C  0.04788169  0.82547654  0.13807740    -0.04060
C598        C  0.01966050  0.85104610  0.12300853    -0.08510
C599        C  0.48144191  0.84098842  0.10324525     0.05020
C600        C  0.47215593  0.80417538  0.09826652    -0.03530
Br601      Br  0.42163876  0.78655905  0.07265931    -0.03230
H602        H  0.49282617  0.75054444  0.10872751     0.08930
H603        H  0.02786773  0.87913245  0.12749562     0.06950
Br604      Br  0.09881747  0.84148704  0.16448640    -0.03660
C605        C  0.25480516  0.77576735  0.23131978    -0.10290
C606        C  0.28442020  0.76366074  0.26312471     0.05900
C607        C  0.27910922  0.73199486  0.27928555    -0.04060
C608        C  0.24490622  0.71310592  0.26350292    -0.08510
C609        C  0.21529756  0.72520786  0.23167728     0.05020
C610        C  0.22063128  0.75688052  0.21553128    -0.03530
Br611      Br  0.18271326  0.77477283  0.17082173    -0.03230
H612        H  0.25874110  0.79918342  0.21787225     0.08930
H613        H  0.24094440  0.68971202  0.27695516     0.06950
Br614      Br  0.31707504  0.71419770  0.32401350    -0.03660
C615        C  0.48599246  0.71521587  0.22439138    -0.10290
C616        C  0.01349328  0.73651171  0.22192236     0.05900
C617        C  0.02598808  0.76816477  0.24302181    -0.04060
C618        C  0.01140455  0.77755246  0.26651522    -0.08510
C619        C  0.48429651  0.75592257  0.26944974     0.05020
C620        C  0.47125188  0.72461687  0.24768890    -0.03530
Br621      Br  0.43315086  0.69310854  0.24805490    -0.03230
H622        H  0.47699656  0.69039799  0.20921242     0.08930
H623        H  0.02002776  0.80262319  0.28129117     0.06950
Br624      Br  0.06236437  0.80031385  0.24030646    -0.03660
O625        O  0.06780846  0.66493865  0.61619862    -0.82930
C626        C  0.12563569  0.65553976  0.76002104     0.96420
O627        O  0.11867025  0.63567457  0.73355243    -0.72050
O628        O  0.08125025  0.61451050  0.66700697    -0.75640
Al629      Al  0.12296308  0.64891421  0.69265042     1.48980
C630        C  0.04656573  0.61718074  0.65877901     0.91670
O631        O  0.02522472  0.71465489  0.67335337    -0.81860
O632        O  0.08374193  0.76003165  0.68529781    -0.75420
Al633      Al  0.05063045  0.68953258  0.64832621     1.90120
O634        O  0.06962029  0.71474896  0.72887080    -0.74490
O635        O  0.15110195  0.73093383  0.71197888    -0.74340
O636        O  0.13502675  0.68839281  0.75979757    -0.80000
O637        O  0.17114953  0.67548181  0.71946527    -0.78200
O638        O  0.09416315  0.68657767  0.68649743    -1.14340
O639        O  0.12796389  0.65928789  0.65138601    -0.73530
C640        C  0.10073563  0.65733845  0.62056515     0.97180
C641        C  0.03658222  0.72076233  0.70671617     0.93580
Al642      Al  0.10936152  0.72103154  0.71900792     1.55560
O643        O  0.03306608  0.64720672  0.65946187    -0.78150
C644        C  0.17735924  0.70927885  0.71963438     0.97750
C645        C  0.06576000  0.76036549  0.65131250     0.92510
O646        O  0.06401424  0.73253616  0.63379581    -0.83470
O647        O  0.05482586  0.51915424  0.88587073    -0.82930
C648        C  0.13487761  0.58996687  0.51414517     0.96420
O649        O  0.14184898  0.55671139  0.51260456    -0.72050
O650        O  0.07511156  0.53580233  0.98590829    -0.75640
Al651      Al  0.11058895  0.52599929  0.97138193     1.48980
C652        C  0.04113440  0.53242686  0.96584132     0.91670
O653        O  0.04360354  0.60706849  0.92187040    -0.81860
O654        O  0.13081167  0.58418499  0.90387493    -0.75420
Al655      Al  0.05212651  0.56345657  0.90541583     1.90120
O656        O  0.09201207  0.63486370  0.92243983    -0.74490
O657        O  0.17489326  0.56615056  0.97078100    -0.74340
O658        O  0.12952309  0.61062821  0.98852973    -0.80000
O659        O  0.14896560  0.51274300  0.96030663    -0.78200
O660        O  0.09741870  0.56149827  0.94061043    -1.14340
O661        O  0.07802061  0.98925596  0.93644059    -0.73530
C662        C  0.05672108  0.99068423  0.90274512     0.97180
C663        C  0.05829973  0.63537195  0.91791501     0.93580
Al664      Al  0.12993548  0.59650937  0.94626348     1.55560
O665        O  0.02771170  0.54128761  0.93293567    -0.78150
C666        C  0.17782638  0.53202961  0.97000419     0.97750
C667        C  0.10287367  0.58896553  0.87420326     0.92630
O668        O  0.06961852  0.58540772  0.87149726    -0.83470
O669        O  0.43396430  0.75739814  0.85943859    -0.82930
C670        C  0.37098577  0.83313296  0.73217957     0.96420
O671        O  0.36224929  0.80029246  0.73344677    -0.72050
O672        O  0.42858202  0.77678119  0.76399444    -0.75640
Al673      Al  0.38976405  0.76878802  0.77475520     1.48980
C674        C  0.46181665  0.77108914  0.78567807     0.91670
O675        O  0.46616786  0.84246698  0.83472215    -0.81860
O676        O  0.37116784  0.83226668  0.84162480    -0.75420
Al677      Al  0.44808080  0.80049941  0.84521858     1.90120
O678        O  0.41784607  0.87577743  0.82460680    -0.74490
O679        O  0.32801045  0.81367378  0.77465969    -0.74340
O680        O  0.37917209  0.85337890  0.75859334    -0.80000
O681        O  0.34877411  0.75823857  0.78294723    -0.78200
O682        O  0.40472216  0.80359758  0.80689405    -1.14340
O683        O  0.41752583  0.73004197  0.80863149    -0.73530
C684        C  0.43479049  0.72987319  0.84270756     0.97180
C685        C  0.45280691  0.87281481  0.83376949     0.93580
Al686      Al  0.37587883  0.84117319  0.80016048     1.55560
O687        O  0.47344830  0.77604599  0.81938462    -0.78150
C688        C  0.32226369  0.77977154  0.77508967     0.97750
C689        C  0.39792897  0.83368163  0.87251623     0.92630
O690        O  0.43085503  0.82521462  0.87735094    -0.83470
O691        O  0.43013389  0.91892015  0.62881815    -0.82930
C692        C  0.37283667  0.90105188  0.98506383     0.96420
O693        O  0.38000079  0.88262801  0.51249328    -0.72050
O694        O  0.41851742  0.86561371  0.57986946    -0.75640
Al695      Al  0.37554353  0.89775106  0.55304907     1.48980
C696        C  0.45335856  0.87015369  0.58905810     0.91670
O697        O  0.47125539  0.96703667  0.56954792    -0.81860
O698        O  0.41325692  0.50958695  0.55358024    -0.75420
Al699      Al  0.44635688  0.94289239  0.59579492     1.90120
O700        O  0.42844100  0.96058113  0.51372759    -0.74490
O701        O  0.34729275  0.97841236  0.52918765    -0.74340
O702        O  0.36264165  0.93352464  0.98373526    -0.80000
O703        O  0.32666143  0.92317354  0.52543202    -0.78200
O704        O  0.40354401  0.93615627  0.55740214    -1.14340
O705        O  0.37040810  0.90896972  0.59418236    -0.73530
C706        C  0.39805744  0.90816377  0.62477791     0.97180
C707        C  0.46046577  0.97037125  0.53586262     0.93580
Al708      Al  0.38835354  0.96811588  0.52266298     1.55560
O709        O  0.46591133  0.90095772  0.58823626    -0.78150
C710        C  0.32062391  0.95711331  0.52272201     0.97750
C711        C  0.42916787  0.51306054  0.58743938     0.92630
O712        O  0.43028599  0.98665619  0.60669628    -0.83470
C713        C  0.42029534  0.85479198  0.93574287    -0.10290
C714        C  0.39029046  0.84850783  0.90182840     0.05900
C715        C  0.35387257  0.85989881  0.89579536    -0.04060
C716        C  0.34895716  0.87816314  0.92263572    -0.08510
C717        C  0.37908475  0.88453174  0.95610663     0.05020
C718        C  0.41492193  0.87212185  0.96273939    -0.03530
Br719      Br  0.45816062  0.87902277  0.50792717    -0.03230
H720        H  0.44827652  0.84665419  0.94127058     0.08930
H721        H  0.32120660  0.88660591  0.91764957     0.06950
Br722      Br  0.30852968  0.85133907  0.85237744    -0.03660
C723        C  0.35535062  0.88671621  0.64987166    -0.10290
C724        C  0.39233379  0.89058413  0.65411469     0.05900
C725        C  0.42137043  0.87272018  0.68316628    -0.04060
C726        C  0.41301506  0.85208785  0.70678553    -0.08510
C727        C  0.37615333  0.84820638  0.70213054     0.05020
C728        C  0.34725203  0.86598830  0.67362726    -0.03530
Br729      Br  0.29664075  0.86325133  0.66696255    -0.03230
H730        H  0.33237355  0.89973111  0.62771435     0.08930
H731        H  0.43573698  0.83949771  0.72957106     0.06950
Br732      Br  0.47278363  0.87380358  0.69184475    -0.03660
C733        C  0.21516315  0.97524229  0.98441535    -0.10290
C734        C  0.21453801  0.51334676  0.98275474     0.05900
C735        C  0.24896876  0.53184930  0.99526287    -0.04060
C736        C  0.28228148  0.51257469  0.50879525    -0.08510
C737        C  0.28315004  0.97448261  0.51021651     0.05020
C738        C  0.24878092  0.95587381  0.49793219    -0.03530
Br739      Br  0.24549485  0.90444349  0.49892181    -0.03230
H740        H  0.18923300  0.96009099  0.97539132     0.08930
H741        H  0.30797038  0.52814999  0.51801560     0.06950
Br742      Br  0.25354490  0.58332048  0.99475465    -0.03660
C743        C  0.01578588  0.97310389  0.52521400    -0.10290
C744        C  0.48265615  0.98862617  0.52080908     0.05900
C745        C  0.46771099  0.51799158  0.99680337    -0.04060
C746        C  0.48615805  0.53108050  0.97773666    -0.08510
C747        C  0.01926382  0.51542842  0.98201896     0.05020
C748        C  0.03396917  0.98581207  0.50584254    -0.03530
Br749      Br  0.07721515  0.95908172  0.51198921    -0.03230
H750        H  0.02658235  0.94987420  0.54247360     0.08930
H751        H  0.47517344  0.55413972  0.96028002     0.06950
Br752      Br  0.42304531  0.54284239  0.98927462    -0.03660
C753        C  0.04352882  0.92850105  0.87756181    -0.10290
C754        C  0.03009541  0.96105290  0.88338559     0.05900
C755        C  0.99065379  0.96541878  0.86887106    -0.04060
C756        C  0.46623638  0.93684749  0.85184611    -0.08510
C757        C  0.47950898  0.90383353  0.84704564     0.05020
C758        C  0.01880971  0.90039653  0.85870324    -0.03530
Br759      Br  0.04147490  0.85919294  0.84899709    -0.03230
H760        H  0.07336140  0.92521349  0.88698493     0.08930
H761        H  0.43648410  0.94045400  0.84269697     0.06950
Br762      Br  0.46629432  0.00878224  0.87071585    -0.03660
C763        C  0.00701575  0.67276851  0.91696370    -0.10290
C764        C  0.03259107  0.66607006  0.90310984     0.05900
C765        C  0.02467191  0.67996360  0.86916533    -0.04060
C766        C  0.49069191  0.69713718  0.84872591    -0.08510
C767        C  0.46485716  0.70352267  0.86216242     0.05020
C768        C  0.47408041  0.69223230  0.89734816    -0.03530
Br769      Br  0.44203851  0.70160068  0.91924654    -0.03230
H770        H  0.01213617  0.66172374  0.94277876     0.08930
H771        H  0.48544379  0.70712676  0.82268030     0.06950
Br772      Br  0.05877014  0.67631409  0.84889746    -0.03660
C773        C  0.07990298  0.60809864  0.81061085    -0.10290
C774        C  0.11017103  0.60285723  0.84435258     0.05900
C775        C  0.14643837  0.61504337  0.84983000    -0.04060
C776        C  0.15076393  0.63357875  0.82269039    -0.08510
C777        C  0.12012715  0.63976318  0.78970023     0.05020
C778        C  0.08461061  0.62634222  0.78364807    -0.03530
Br779      Br  0.04077099  0.63365913  0.73958871    -0.03230
H780        H  0.05209139  0.59917967  0.80549959     0.08930
H781        H  0.17836450  0.64250263  0.82709045     0.06950
Br782      Br  0.19229054  0.60786522  0.89289734    -0.03660
C783        C  0.08981963  0.61501443  0.53292575    -0.10290
C784        C  0.12688105  0.60476673  0.54253363     0.05900
C785        C  0.15519683  0.61461395  0.57615043    -0.04060
C786        C  0.14601949  0.63299748  0.60024096    -0.08510
C787        C  0.10858700  0.64239040  0.59143831     0.05020
C788        C  0.08039698  0.63368072  0.55674307    -0.03530
Br789      Br  0.02865494  0.64603824  0.53965699    -0.03230
H790        H  0.06796060  0.60886294  0.50624013     0.08930
H791        H  0.16863491  0.63967841  0.62630189     0.06950
Br792      Br  0.20675633  0.60503039  0.58931404    -0.03660
C793        C  0.48973303  0.58426517  0.65335473    -0.10290
C794        C  0.01953934  0.58704646  0.64415763     0.05900
C795        C  0.01743281  0.56695011  0.61494740    -0.04060
C796        C  0.48529507  0.54672416  0.59449266    -0.08510
C797        C  0.45623471  0.54277139  0.60433291     0.05020
C798        C  0.45907633  0.56122042  0.63466599    -0.03530
Br799      Br  0.42102024  0.55691733  0.65034438    -0.03230
H800        H  0.48990912  0.60040810  0.67483273     0.08930
H801        H  0.48401746  0.53277688  0.57154077     0.06950
Br802      Br  0.05694291  0.56615240  0.60101016    -0.03660
C803        C  0.50064297  0.77873040  0.61256331    -0.10290
C804        C  0.03849203  0.78896904  0.63293736     0.05900
C805        C  0.04788169  0.82547654  0.63807741    -0.04060
C806        C  0.01966050  0.85104609  0.62300854    -0.08510
C807        C  0.48144191  0.84098841  0.60324526     0.05020
C808        C  0.47215593  0.80417538  0.59826652    -0.03530
Br809      Br  0.42163876  0.78655904  0.57265930    -0.03230
H810        H  0.49282617  0.75054443  0.60872751     0.08930
H811        H  0.02786772  0.87913245  0.62749564     0.06950
Br812      Br  0.09881747  0.84148704  0.66448641    -0.03660
C813        C  0.25480516  0.77576734  0.73131978    -0.10290
C814        C  0.28442020  0.76366073  0.76312471     0.05900
C815        C  0.27910923  0.73199485  0.77928555    -0.04060
C816        C  0.24490622  0.71310591  0.76350293    -0.08510
C817        C  0.21529757  0.72520785  0.73167728     0.05020
C818        C  0.22063128  0.75688051  0.71553128    -0.03530
Br819      Br  0.18271326  0.77477282  0.67082173    -0.03230
H820        H  0.25874110  0.79918341  0.71787225     0.08930
H821        H  0.24094440  0.68971201  0.77695516     0.06950
Br822      Br  0.31707505  0.71419769  0.82401350    -0.03660
C823        C  0.48599247  0.71521586  0.72439139    -0.10290
C824        C  0.01349328  0.73651170  0.72192236     0.05900
C825        C  0.02598807  0.76816477  0.74302180    -0.04060
C826        C  0.01140455  0.77755246  0.76651521    -0.08510
C827        C  0.48429652  0.75592256  0.76944974     0.05020
C828        C  0.47125189  0.72461686  0.74768890    -0.03530
Br829      Br  0.43315088  0.69310853  0.74805493    -0.03230
H830        H  0.47699657  0.69039797  0.70921243     0.08930
H831        H  0.02002776  0.80262320  0.78129115     0.06950
Br832      Br  0.06236436  0.80031385  0.74030643    -0.03660
O833        O  0.56780846  0.16493865  0.11619862    -0.82930
C834        C  0.62563569  0.15553976  0.26002104     0.96420
O835        O  0.61867025  0.13567458  0.23355243    -0.72050
O836        O  0.58125026  0.11451050  0.16700697    -0.75640
Al837      Al  0.62296308  0.14891421  0.19265042     1.48980
C838        C  0.54656573  0.11718074  0.15877902     0.91670
O839        O  0.52522472  0.21465489  0.17335339    -0.81860
O840        O  0.58374193  0.26003165  0.18529781    -0.75420
Al841      Al  0.55063045  0.18953258  0.14832622     1.90120
O842        O  0.56962030  0.21474896  0.22887081    -0.74490
O843        O  0.65110194  0.23093384  0.21197888    -0.74340
O844        O  0.63502675  0.18839281  0.25979757    -0.80000
O845        O  0.67114953  0.17548182  0.21946527    -0.78200
O846        O  0.59416315  0.18657767  0.18649743    -1.14340
O847        O  0.62796389  0.15928790  0.15138601    -0.73530
C848        C  0.60073562  0.15733845  0.12056515     0.97180
C849        C  0.53658223  0.22076233  0.20671619     0.93580
Al850      Al  0.60936153  0.22103154  0.21900792     1.55560
O851        O  0.53306608  0.14720672  0.15946188    -0.78150
C852        C  0.67735924  0.20927885  0.21963438     0.97750
C853        C  0.56575999  0.26036550  0.15131251     0.92510
O854        O  0.56401423  0.23253617  0.13379582    -0.83470
O855        O  0.55482588  0.01915424  0.38587074    -0.82930
C856        C  0.63487759  0.08996686  0.01414517     0.96420
O857        O  0.64184896  0.05671137  0.01260455    -0.72050
O858        O  0.57511158  0.03580237  0.48590830    -0.75640
Al859      Al  0.61058896  0.02599931  0.47138194     1.48980
C860        C  0.54113442  0.03242688  0.46584134     0.91670
O861        O  0.54360354  0.10706849  0.42187039    -0.81860
O862        O  0.63081167  0.08418498  0.40387493    -0.75420
Al863      Al  0.55212651  0.06345657  0.40541583     1.90120
O864        O  0.59201208  0.13486371  0.42243982    -0.74490
O865        O  0.67489327  0.06615057  0.47078100    -0.74340
O866        O  0.62952310  0.11062823  0.48852971    -0.80000
O867        O  0.64896560  0.01274301  0.46030664    -0.78200
O868        O  0.59741870  0.06149828  0.44061043    -1.14340
O869        O  0.57802062  0.48925597  0.43644061    -0.73530
C870        C  0.55672108  0.49068423  0.40274514     0.97180
C871        C  0.55829973  0.13537195  0.41791499     0.93580
Al872      Al  0.62993549  0.09650938  0.44626347     1.55560
O873        O  0.52771171  0.04128762  0.43293568    -0.78150
C874        C  0.67782639  0.03202961  0.47000419     0.97750
C875        C  0.60287368  0.08896552  0.37420326     0.92630
O876        O  0.56961852  0.08540771  0.37149725    -0.83470
O877        O  0.93396429  0.25739815  0.35943859    -0.82930
C878        C  0.87098577  0.33313297  0.23217957     0.96420
O879        O  0.86224928  0.30029247  0.23344677    -0.72050
O880        O  0.92858202  0.27678119  0.26399444    -0.75640
Al881      Al  0.88976404  0.26878802  0.27475521     1.48980
C882        C  0.96181664  0.27108914  0.28567806     0.91670
O883        O  0.96616786  0.34246698  0.33472215    -0.81860
O884        O  0.87116784  0.33226669  0.34162480    -0.75420
Al885      Al  0.94808080  0.30049942  0.34521858     1.90120
O886        O  0.91784607  0.37577744  0.32460680    -0.74490
O887        O  0.82801045  0.31367379  0.27465969    -0.74340
O888        O  0.87917209  0.35337891  0.25859335    -0.80000
O889        O  0.84877411  0.25823858  0.28294723    -0.78200
O890        O  0.90472216  0.30359759  0.30689406    -1.14340
O891        O  0.91752582  0.23004198  0.30863149    -0.73530
C892        C  0.93479049  0.22987319  0.34270756     0.97180
C893        C  0.95280692  0.37281481  0.33376949     0.93580
Al894      Al  0.87587883  0.34117320  0.30016048     1.55560
O895        O  0.97344829  0.27604599  0.31938462    -0.78150
C896        C  0.82226369  0.27977156  0.27508967     0.97750
C897        C  0.89792897  0.33368163  0.37251624     0.92630
O898        O  0.93085502  0.32521462  0.37735095    -0.83470
O899        O  0.93013389  0.41892014  0.12881815    -0.82930
C900        C  0.87283666  0.40105186  0.48506383     0.96420
O901        O  0.88000080  0.38262803  0.01249327    -0.72050
O902        O  0.91851742  0.36561372  0.07986944    -0.75640
Al903      Al  0.87554353  0.39775107  0.05304906     1.48980
C904        C  0.95335856  0.37015370  0.08905810     0.91670
O905        O  0.97125541  0.46703668  0.06954794    -0.81860
O906        O  0.91325692  0.00958695  0.05358024    -0.75420
Al907      Al  0.94635688  0.44289240  0.09579493     1.90120
O908        O  0.92844102  0.46058117  0.01372761    -0.74490
O909        O  0.84729275  0.47841237  0.02918764    -0.74340
O910        O  0.86264163  0.43352463  0.48373526    -0.80000
O911        O  0.82666144  0.42317356  0.02543201    -0.78200
O912        O  0.90354401  0.43615628  0.05740214    -1.14340
O913        O  0.87040809  0.40896972  0.09418235    -0.73530
C914        C  0.89805744  0.40816376  0.12477790     0.97180
C915        C  0.96046579  0.47037127  0.03586265     0.93580
Al916      Al  0.88835355  0.46811590  0.02266299     1.55560
O917        O  0.96591134  0.40095773  0.08823626    -0.78150
C918        C  0.82062391  0.45711332  0.02272200     0.97750
C919        C  0.92916787  0.01306054  0.08743939     0.92630
O920        O  0.93028600  0.48665619  0.10669630    -0.83470
C921        C  0.92029534  0.35479199  0.43574287    -0.10290
C922        C  0.89029046  0.34850782  0.40182841     0.05900
C923        C  0.85387256  0.35989879  0.39579537    -0.04060
C924        C  0.84895715  0.37816311  0.42263572    -0.08510
C925        C  0.87908474  0.38453173  0.45610663     0.05020
C926        C  0.91492192  0.37212185  0.46273939    -0.03530
Br927      Br  0.95816064  0.37902281  0.00792716    -0.03230
H928        H  0.94827652  0.34665420  0.44127057     0.08930
H929        H  0.82120659  0.38660587  0.41764957     0.06950
Br930      Br  0.80852967  0.35133902  0.35237745    -0.03660
C931        C  0.85535060  0.38671615  0.14987162    -0.10290
C932        C  0.89233378  0.39058412  0.15411468     0.05900
C933        C  0.92137043  0.37272023  0.18316631    -0.04060
C934        C  0.91301507  0.35208790  0.20678557    -0.08510
C935        C  0.87615334  0.34820638  0.20213054     0.05020
C936        C  0.84725202  0.36598824  0.17362722    -0.03530
Br937      Br  0.79664073  0.36325119  0.16696247    -0.03230
H938        H  0.83237352  0.39973100  0.12771428     0.08930
H939        H  0.93573700  0.33949780  0.22957112     0.06950
Br940      Br  0.97278365  0.37380370  0.19184482    -0.03660
C941        C  0.71516315  0.47524230  0.48441533    -0.10290
C942        C  0.71453801  0.01334676  0.48275474     0.05900
C943        C  0.74896877  0.03184930  0.49526288    -0.04060
C944        C  0.78228148  0.01257469  0.00879525    -0.08510
C945        C  0.78315005  0.47448262  0.01021651     0.05020
C946        C  0.74878092  0.45587381  0.99793217    -0.03530
Br947      Br  0.74549486  0.40444349  0.99892175    -0.03230
H948        H  0.68923299  0.46009099  0.47539128     0.08930
H949        H  0.80797038  0.02814999  0.01801561     0.06950
Br950      Br  0.75354491  0.08332048  0.49475466    -0.03660
C951        C  0.51578583  0.47310381  0.02521391    -0.10290
C952        C  0.98265619  0.48862619  0.02080911     0.05900
C953        C  0.96771091  0.01799149  0.49680325    -0.04060
C954        C  0.98615799  0.03108043  0.47773657    -0.08510
C955        C  0.51926384  0.01542844  0.48201900     0.05020
C956        C  0.53396908  0.48581198  0.00584242    -0.03530
Br957      Br  0.57721493  0.45908152  0.01198890    -0.03230
H958        H  0.52658226  0.44987407  0.04247345     0.08930
H959        H  0.97517334  0.05413960  0.46027986     0.06950
Br960      Br  0.92304514  0.04284222  0.48927436    -0.03660
C961        C  0.54352883  0.42850105  0.37756183    -0.10290
C962        C  0.53009541  0.46105290  0.38338561     0.05900
C963        C  0.49065379  0.46541879  0.36887108    -0.04060
C964        C  0.96623638  0.43684750  0.35184612    -0.08510
C965        C  0.97950899  0.40383353  0.34704565     0.05020
C966        C  0.51880971  0.40039654  0.35870326    -0.03530
Br967      Br  0.54147491  0.35919294  0.34899711    -0.03230
H968        H  0.57336141  0.42521349  0.38698495     0.08930
H969        H  0.93648410  0.44045401  0.34269698     0.06950
Br970      Br  0.96629432  0.50878225  0.37071586    -0.03660
C971        C  0.50701579  0.17276854  0.41696371    -0.10290
C972        C  0.53259107  0.16607007  0.40310982     0.05900
C973        C  0.52467188  0.17996358  0.36916530    -0.04060
C974        C  0.99069189  0.19713716  0.34872589    -0.08510
C975        C  0.96485716  0.20352268  0.36216242     0.05020
C976        C  0.97408044  0.19223233  0.39734817    -0.03530
Br977      Br  0.94203857  0.20160074  0.41924658    -0.03230
H978        H  0.51213622  0.16172379  0.44277879     0.08930
H979        H  0.98544375  0.20712673  0.32268027     0.06950
Br980      Br  0.55877008  0.17631404  0.34889739    -0.03660
C981        C  0.57990299  0.10809861  0.31061084    -0.10290
C982        C  0.61017104  0.10285722  0.34435258     0.05900
C983        C  0.64643837  0.11504338  0.34983000    -0.04060
C984        C  0.65076393  0.13357877  0.32269039    -0.08510
C985        C  0.62012716  0.13976317  0.28970023     0.05020
C986        C  0.58461062  0.12634220  0.28364806    -0.03530
Br987      Br  0.54077100  0.13365911  0.23958870    -0.03230
H988        H  0.55209141  0.09917963  0.30549958     0.08930
H989        H  0.67836450  0.14250266  0.32709046     0.06950
Br990      Br  0.69229054  0.10786528  0.39289736    -0.03660
C991        C  0.58981961  0.11501443  0.03292574    -0.10290
C992        C  0.62688104  0.10476672  0.04253363     0.05900
C993        C  0.65519681  0.11461393  0.07615043    -0.04060
C994        C  0.64601948  0.13299747  0.10024096    -0.08510
C995        C  0.60858699  0.14239040  0.09143831     0.05020
C996        C  0.58039697  0.13368072  0.05674306    -0.03530
Br997      Br  0.52865493  0.14603826  0.03965699    -0.03230
H998        H  0.56796058  0.10886294  0.00624013     0.08930
H999        H  0.66863490  0.13967839  0.12630189     0.06950
Br1000     Br  0.70675631  0.10503036  0.08931404    -0.03660
C1001       C  0.98973304  0.08426517  0.15335474    -0.10290
C1002       C  0.51953934  0.08704647  0.14415764     0.05900
C1003       C  0.51743282  0.06695011  0.11494741    -0.04060
C1004       C  0.98529507  0.04672416  0.09449266    -0.08510
C1005       C  0.95623471  0.04277139  0.10433292     0.05020
C1006       C  0.95907633  0.06122042  0.13466600    -0.03530
Br1007     Br  0.92102025  0.05691732  0.15034439    -0.03230
H1008       H  0.98990913  0.10040810  0.17483274     0.08930
H1009       H  0.98401746  0.03277689  0.07154077     0.06950
Br1010     Br  0.55694290  0.06615241  0.10101016    -0.03660
C1011       C  0.00064295  0.27873040  0.11256333    -0.10290
C1012       C  0.53849202  0.28896904  0.13293737     0.05900
C1013       C  0.54788169  0.32547654  0.13807739    -0.04060
C1014       C  0.51966051  0.35104609  0.12300852    -0.08510
C1015       C  0.98144191  0.34098841  0.10324525     0.05020
C1016       C  0.97215592  0.30417538  0.09826654    -0.03530
Br1017     Br  0.92163875  0.28655904  0.07265936    -0.03230
H1018       H  0.99282615  0.25054443  0.10872755     0.08930
H1019       H  0.52786773  0.37913245  0.12749559     0.06950
Br1020     Br  0.59881747  0.34148703  0.16448637    -0.03660
C1021       C  0.75480516  0.27576735  0.23131978    -0.10290
C1022       C  0.78442020  0.26366074  0.26312471     0.05900
C1023       C  0.77910922  0.23199486  0.27928556    -0.04060
C1024       C  0.74490622  0.21310592  0.26350293    -0.08510
C1025       C  0.71529757  0.22520786  0.23167728     0.05020
C1026       C  0.72063128  0.25688051  0.21553128    -0.03530
Br1027     Br  0.68271326  0.27477282  0.17082173    -0.03230
H1028       H  0.75874110  0.29918342  0.21787225     0.08930
H1029       H  0.74094440  0.18971202  0.27695516     0.06950
Br1030     Br  0.81707504  0.21419771  0.32401351    -0.03660
C1031       C  0.98599246  0.21521587  0.22439138    -0.10290
C1032       C  0.51349329  0.23651170  0.22192238     0.05900
C1033       C  0.52598809  0.26816475  0.24302183    -0.04060
C1034       C  0.51140456  0.27755245  0.26651524    -0.08510
C1035       C  0.98429651  0.25592256  0.26944974     0.05020
C1036       C  0.97125187  0.22461687  0.24768889    -0.03530
Br1037     Br  0.93315084  0.19310855  0.24805489    -0.03230
H1038       H  0.97699655  0.19039798  0.20921241     0.08930
H1039       H  0.52002778  0.30262317  0.28129119     0.06950
Br1040     Br  0.56236440  0.30031383  0.24030649    -0.03660
O1041       O  0.56780846  0.16493865  0.61619861    -0.82930
C1042       C  0.62563569  0.15553975  0.76002104     0.96420
O1043       O  0.61867025  0.13567457  0.73355243    -0.72050
O1044       O  0.58125025  0.11451049  0.66700696    -0.75640
Al1045     Al  0.62296308  0.14891421  0.69265042     1.48980
C1046       C  0.54656573  0.11718074  0.65877901     0.91670
O1047       O  0.52522472  0.21465488  0.67335338    -0.81860
O1048       O  0.58374193  0.26003165  0.68529781    -0.75420
Al1049     Al  0.55063044  0.18953257  0.64832621     1.90120
O1050       O  0.56962029  0.21474895  0.72887080    -0.74490
O1051       O  0.65110194  0.23093383  0.71197888    -0.74340
O1052       O  0.63502675  0.18839281  0.75979756    -0.80000
O1053       O  0.67114953  0.17548181  0.71946526    -0.78200
O1054       O  0.59416315  0.18657766  0.68649743    -1.14340
O1055       O  0.62796389  0.15928789  0.65138601    -0.73530
C1056       C  0.60073562  0.15733845  0.62056515     0.97180
C1057       C  0.53658222  0.22076232  0.70671618     0.93580
Al1058     Al  0.60936152  0.22103153  0.71900792     1.55560
O1059       O  0.53306608  0.14720671  0.65946186    -0.78150
C1060       C  0.67735923  0.20927885  0.71963438     0.97750
C1061       C  0.56575999  0.26036549  0.65131250     0.92510
O1062       O  0.56401423  0.23253616  0.63379581    -0.83470
O1063       O  0.55482587  0.01915424  0.88587073    -0.82930
C1064       C  0.63487761  0.08996687  0.51414516     0.96420
O1065       O  0.64184898  0.05671139  0.51260456    -0.72050
O1066       O  0.57511156  0.03580234  0.98590829    -0.75640
Al1067     Al  0.61058895  0.02599930  0.97138193     1.48980
C1068       C  0.54113440  0.03242686  0.96584132     0.91670
O1069       O  0.54360353  0.10706849  0.92187039    -0.81860
O1070       O  0.63081167  0.08418499  0.90387493    -0.75420
Al1071     Al  0.55212651  0.06345657  0.90541582     1.90120
O1072       O  0.59201207  0.13486370  0.92243982    -0.74490
O1073       O  0.67489326  0.06615057  0.97078100    -0.74340
O1074       O  0.62952309  0.11062822  0.98852972    -0.80000
O1075       O  0.64896560  0.01274300  0.96030663    -0.78200
O1076       O  0.59741870  0.06149828  0.94061043    -1.14340
O1077       O  0.57802061  0.48925595  0.93644059    -0.73530
C1078       C  0.55672108  0.49068423  0.90274512     0.97180
C1079       C  0.55829972  0.13537195  0.91791499     0.93580
Al1080     Al  0.62993548  0.09650937  0.94626348     1.55560
O1081       O  0.52771170  0.04128761  0.93293566    -0.78150
C1082       C  0.67782638  0.03202961  0.97000419     0.97750
C1083       C  0.60287367  0.08896553  0.87420326     0.92630
O1084       O  0.56961852  0.08540772  0.87149725    -0.83470
O1085       O  0.93396429  0.25739814  0.85943859    -0.82930
C1086       C  0.87098577  0.33313296  0.73217957     0.96420
O1087       O  0.86224928  0.30029246  0.73344677    -0.72050
O1088       O  0.92858202  0.27678119  0.76399444    -0.75640
Al1089     Al  0.88976404  0.26878802  0.77475520     1.48980
C1090       C  0.96181664  0.27108914  0.78567806     0.91670
O1091       O  0.96616786  0.34246698  0.83472214    -0.81860
O1092       O  0.87116784  0.33226668  0.84162480    -0.75420
Al1093     Al  0.94808080  0.30049941  0.84521858     1.90120
O1094       O  0.91784607  0.37577743  0.82460680    -0.74490
O1095       O  0.82801044  0.31367379  0.77465969    -0.74340
O1096       O  0.87917208  0.35337890  0.75859334    -0.80000
O1097       O  0.84877411  0.25823858  0.78294723    -0.78200
O1098       O  0.90472216  0.30359758  0.80689405    -1.14340
O1099       O  0.91752582  0.23004197  0.80863148    -0.73530
C1100       C  0.93479048  0.22987319  0.84270756     0.97180
C1101       C  0.95280691  0.37281481  0.83376948     0.93580
Al1102     Al  0.87587883  0.34117319  0.80016047     1.55560
O1103       O  0.97344829  0.27604599  0.81938462    -0.78150
C1104       C  0.82226368  0.27977155  0.77508967     0.97750
C1105       C  0.89792897  0.33368163  0.87251623     0.92630
O1106       O  0.93085503  0.32521462  0.87735094    -0.83470
O1107       O  0.93013389  0.41892015  0.62881815    -0.82930
C1108       C  0.87283667  0.40105188  0.98506383     0.96420
O1109       O  0.88000079  0.38262802  0.51249327    -0.72050
O1110       O  0.91851741  0.36561372  0.57986945    -0.75640
Al1111     Al  0.87554352  0.39775107  0.55304906     1.48980
C1112       C  0.95335856  0.37015370  0.58905810     0.91670
O1113       O  0.97125539  0.46703668  0.56954792    -0.81860
O1114       O  0.91325692  0.00958694  0.55358023    -0.75420
Al1115     Al  0.94635688  0.44289240  0.59579492     1.90120
O1116       O  0.92844100  0.46058114  0.51372760    -0.74490
O1117       O  0.84729275  0.47841236  0.52918764    -0.74340
O1118       O  0.86264165  0.43352465  0.98373526    -0.80000
O1119       O  0.82666143  0.42317355  0.52543202    -0.78200
O1120       O  0.90354400  0.43615627  0.55740214    -1.14340
O1121       O  0.87040809  0.40896972  0.59418235    -0.73530
C1122       C  0.89805744  0.40816377  0.62477791     0.97180
C1123       C  0.96046577  0.47037126  0.53586263     0.93580
Al1124     Al  0.88835354  0.46811589  0.52266298     1.55560
O1125       O  0.96591133  0.40095773  0.58823626    -0.78150
C1126       C  0.82062391  0.45711332  0.52272200     0.97750
C1127       C  0.92916787  0.01306053  0.58743937     0.92630
O1128       O  0.93028599  0.48665619  0.60669629    -0.83470
C1129       C  0.92029534  0.35479200  0.93574287    -0.10290
C1130       C  0.89029046  0.34850783  0.90182840     0.05900
C1131       C  0.85387257  0.35989880  0.89579537    -0.04060
C1132       C  0.84895716  0.37816313  0.92263572    -0.08510
C1133       C  0.87908475  0.38453175  0.95610663     0.05020
C1134       C  0.91492194  0.37212187  0.96273939    -0.03530
Br1135     Br  0.95816062  0.37902280  0.50792717    -0.03230
H1136       H  0.94827653  0.34665421  0.94127057     0.08930
H1137       H  0.82120660  0.38660589  0.91764957     0.06950
Br1138     Br  0.80852967  0.35133903  0.85237745    -0.03660
C1139       C  0.85535060  0.38671616  0.64987163    -0.10290
C1140       C  0.89233378  0.39058413  0.65411468     0.05900
C1141       C  0.92137043  0.37272023  0.68316631    -0.04060
C1142       C  0.91301507  0.35208789  0.70678556    -0.08510
C1143       C  0.87615333  0.34820638  0.70213054     0.05020
C1144       C  0.84725202  0.36598825  0.67362723    -0.03530
Br1145     Br  0.79664073  0.36325121  0.66696248    -0.03230
H1146       H  0.83237352  0.39973102  0.62771429     0.08930
H1147       H  0.93573700  0.33949779  0.72957111     0.06950
Br1148     Br  0.97278365  0.37380369  0.69184482    -0.03660
C1149       C  0.71516315  0.47524229  0.98441533    -0.10290
C1150       C  0.71453801  0.01334676  0.98275474     0.05900
C1151       C  0.74896876  0.03184930  0.99526288    -0.04060
C1152       C  0.78228148  0.01257468  0.50879525    -0.08510
C1153       C  0.78315004  0.47448262  0.51021651     0.05020
C1154       C  0.74878092  0.45587381  0.49793217    -0.03530
Br1155     Br  0.74549485  0.40444350  0.49892175    -0.03230
H1156       H  0.68923299  0.46009098  0.97539129     0.08930
H1157       H  0.80797038  0.02814998  0.51801560     0.06950
Br1158     Br  0.75354490  0.08332048  0.99475467    -0.03660
C1159       C  0.51578587  0.47310388  0.52521399    -0.10290
C1160       C  0.98265616  0.48862618  0.52080909     0.05900
C1161       C  0.96771096  0.01799155  0.99680333    -0.04060
C1162       C  0.98615803  0.03108047  0.97773663    -0.08510
C1163       C  0.51926382  0.01542842  0.98201896     0.05020
C1164       C  0.53396916  0.48581206  0.50584252    -0.03530
Br1165     Br  0.57721511  0.45908168  0.51198916    -0.03230
H1166       H  0.52658234  0.44987418  0.54247358     0.08930
H1167       H  0.97517340  0.05413969  0.96027996     0.06950
Br1168     Br  0.92304526  0.04284234  0.98927454    -0.03660
C1169       C  0.54352881  0.42850105  0.87756179    -0.10290
C1170       C  0.53009540  0.46105290  0.88338559     0.05900
C1171       C  0.49065378  0.46541878  0.86887108    -0.04060
C1172       C  0.96623637  0.43684749  0.85184612    -0.08510
C1173       C  0.97950898  0.40383353  0.84704563     0.05020
C1174       C  0.51880970  0.40039654  0.85870322    -0.03530
Br1175     Br  0.54147488  0.35919296  0.84899703    -0.03230
H1176       H  0.57336139  0.42521350  0.88698489     0.08930
H1177       H  0.93648410  0.44045400  0.84269699     0.06950
Br1178     Br  0.96629431  0.50878223  0.87071588    -0.03660
C1179       C  0.50701577  0.17276852  0.91696370    -0.10290
C1180       C  0.53259107  0.16607007  0.90310983     0.05900
C1181       C  0.52467189  0.17996358  0.86916531    -0.04060
C1182       C  0.99069190  0.19713717  0.84872589    -0.08510
C1183       C  0.96485716  0.20352267  0.86216242     0.05020
C1184       C  0.97408042  0.19223232  0.89734816    -0.03530
Br1185     Br  0.94203854  0.20160072  0.91924656    -0.03230
H1186       H  0.51213620  0.16172377  0.94277878     0.08930
H1187       H  0.98544377  0.20712674  0.82268028     0.06950
Br1188     Br  0.55877010  0.17631406  0.84889741    -0.03660
C1189       C  0.57990299  0.10809862  0.81061084    -0.10290
C1190       C  0.61017104  0.10285723  0.84435258     0.05900
C1191       C  0.64643837  0.11504339  0.84983000    -0.04060
C1192       C  0.65076393  0.13357877  0.82269039    -0.08510
C1193       C  0.62012715  0.13976317  0.78970023     0.05020
C1194       C  0.58461062  0.12634220  0.78364806    -0.03530
Br1195     Br  0.54077099  0.13365910  0.73958870    -0.03230
H1196       H  0.55209140  0.09917963  0.80549958     0.08930
H1197       H  0.67836450  0.14250266  0.82709045     0.06950
Br1198     Br  0.69229054  0.10786528  0.89289736    -0.03660
C1199       C  0.58981963  0.11501444  0.53292574    -0.10290
C1200       C  0.62688105  0.10476674  0.54253362     0.05900
C1201       C  0.65519682  0.11461395  0.57615043    -0.04060
C1202       C  0.64601949  0.13299748  0.60024096    -0.08510
C1203       C  0.60858700  0.14239041  0.59143831     0.05020
C1204       C  0.58039698  0.13368073  0.55674306    -0.03530
Br1205     Br  0.52865494  0.14603826  0.53965698    -0.03230
H1206       H  0.56796059  0.10886295  0.50624012     0.08930
H1207       H  0.66863491  0.13967840  0.62630189     0.06950
Br1208     Br  0.70675632  0.10503038  0.58931404    -0.03660
C1209       C  0.98973303  0.08426516  0.65335472    -0.10290
C1210       C  0.51953934  0.08704646  0.64415762     0.05900
C1211       C  0.51743281  0.06695011  0.61494739    -0.04060
C1212       C  0.98529507  0.04672416  0.59449264    -0.08510
C1213       C  0.95623471  0.04277139  0.60433290     0.05020
C1214       C  0.95907632  0.06122041  0.63466598    -0.03530
Br1215     Br  0.92102025  0.05691732  0.65034437    -0.03230
H1216       H  0.98990912  0.10040809  0.67483273     0.08930
H1217       H  0.98401745  0.03277688  0.57154074     0.06950
Br1218     Br  0.55694290  0.06615241  0.60101015    -0.03660
C1219       C  0.00064295  0.27873040  0.61256332    -0.10290
C1220       C  0.53849202  0.28896904  0.63293737     0.05900
C1221       C  0.54788168  0.32547653  0.63807739    -0.04060
C1222       C  0.51966050  0.35104609  0.62300852    -0.08510
C1223       C  0.98144190  0.34098841  0.60324525     0.05020
C1224       C  0.97215592  0.30417538  0.59826654    -0.03530
Br1225     Br  0.92163874  0.28655904  0.57265935    -0.03230
H1226       H  0.99282615  0.25054443  0.60872754     0.08930
H1227       H  0.52786773  0.37913245  0.62749560     0.06950
Br1228     Br  0.59881747  0.34148703  0.66448637    -0.03660
C1229       C  0.75480516  0.27576734  0.73131978    -0.10290
C1230       C  0.78442020  0.26366074  0.76312471     0.05900
C1231       C  0.77910922  0.23199486  0.77928555    -0.04060
C1232       C  0.74490622  0.21310592  0.76350293    -0.08510
C1233       C  0.71529756  0.22520785  0.73167728     0.05020
C1234       C  0.72063128  0.25688051  0.71553128    -0.03530
Br1235     Br  0.68271326  0.27477281  0.67082172    -0.03230
H1236       H  0.75874110  0.29918341  0.71787224     0.08930
H1237       H  0.74094439  0.18971201  0.77695516     0.06950
Br1238     Br  0.81707504  0.21419770  0.82401351    -0.03660
C1239       C  0.98599246  0.21521586  0.72439138    -0.10290
C1240       C  0.51349328  0.23651169  0.72192237     0.05900
C1241       C  0.52598808  0.26816475  0.74302181    -0.04060
C1242       C  0.51140455  0.27755245  0.76651522    -0.08510
C1243       C  0.98429651  0.25592256  0.76944974     0.05020
C1244       C  0.97125187  0.22461686  0.74768889    -0.03530
Br1245     Br  0.93315086  0.19310853  0.74805491    -0.03230
H1246       H  0.97699656  0.19039797  0.70921242     0.08930
H1247       H  0.52002776  0.30262318  0.78129117     0.06950
Br1248     Br  0.56236437  0.30031383  0.74030646    -0.03660
O1249       O  0.56780846  0.66493865  0.11619862    -0.82930
C1250       C  0.62563569  0.65553977  0.26002105     0.96420
O1251       O  0.61867026  0.63567459  0.23355244    -0.72050
O1252       O  0.58125026  0.61451051  0.16700698    -0.75640
Al1253     Al  0.62296308  0.64891422  0.19265042     1.48980
C1254       C  0.54656573  0.61718075  0.15877903     0.91670
O1255       O  0.52522472  0.71465490  0.17335338    -0.81860
O1256       O  0.58374193  0.76003166  0.18529781    -0.75420
Al1257     Al  0.55063045  0.68953259  0.14832622     1.90120
O1258       O  0.56962030  0.71474897  0.22887080    -0.74490
O1259       O  0.65110195  0.73093384  0.21197888    -0.74340
O1260       O  0.63502675  0.68839283  0.25979757    -0.80000
O1261       O  0.67114953  0.67548182  0.21946527    -0.78200
O1262       O  0.59416316  0.68657768  0.18649743    -1.14340
O1263       O  0.62796389  0.65928790  0.15138601    -0.73530
C1264       C  0.60073562  0.65733845  0.12056515     0.97180
C1265       C  0.53658223  0.72076234  0.20671618     0.93580
Al1266     Al  0.60936153  0.72103155  0.21900792     1.55560
O1267       O  0.53306608  0.64720673  0.15946188    -0.78150
C1268       C  0.67735924  0.70927886  0.21963438     0.97750
C1269       C  0.56576000  0.76036550  0.15131250     0.92510
O1270       O  0.56401424  0.73253617  0.13379581    -0.83470
O1271       O  0.55482587  0.51915425  0.38587073    -0.82930
C1272       C  0.63487759  0.58996685  0.01414517     0.96420
O1273       O  0.64184896  0.55671136  0.01260456    -0.72050
O1274       O  0.57511157  0.53580237  0.48590830    -0.75640
Al1275     Al  0.61058896  0.52599931  0.47138194     1.48980
C1276       C  0.54113441  0.53242688  0.46584133     0.91670
O1277       O  0.54360354  0.60706850  0.42187040    -0.81860
O1278       O  0.63081167  0.58418500  0.40387493    -0.75420
Al1279     Al  0.55212651  0.56345657  0.40541583     1.90120
O1280       O  0.59201207  0.63486371  0.42243982    -0.74490
O1281       O  0.67489327  0.56615057  0.47078100    -0.74340
O1282       O  0.62952310  0.61062823  0.48852972    -0.80000
O1283       O  0.64896560  0.51274301  0.46030663    -0.78200
O1284       O  0.59741870  0.56149829  0.44061043    -1.14340
O1285       O  0.57802062  0.98925597  0.43644062    -0.73530
C1286       C  0.55672108  0.99068423  0.40274515     0.97180
C1287       C  0.55829973  0.63537196  0.41791500     0.93580
Al1288     Al  0.62993549  0.59650938  0.44626348     1.55560
O1289       O  0.52771171  0.54128762  0.43293567    -0.78150
C1290       C  0.67782638  0.53202962  0.47000419     0.97750
C1291       C  0.60287367  0.58896553  0.37420326     0.92630
O1292       O  0.56961852  0.58540772  0.37149726    -0.83470
O1293       O  0.93396429  0.75739815  0.35943858    -0.82930
C1294       C  0.87098577  0.83313297  0.23217957     0.96420
O1295       O  0.86224929  0.80029247  0.23344677    -0.72050
O1296       O  0.92858202  0.77678120  0.26399444    -0.75640
Al1297     Al  0.88976404  0.76878803  0.27475520     1.48980
C1298       C  0.96181664  0.77108915  0.28567806     0.91670
O1299       O  0.96616786  0.84246698  0.33472215    -0.81860
O1300       O  0.87116784  0.83226669  0.34162479    -0.75420
Al1301     Al  0.94808080  0.80049942  0.34521858     1.90120
O1302       O  0.91784608  0.87577744  0.32460680    -0.74490
O1303       O  0.82801045  0.81367380  0.27465969    -0.74340
O1304       O  0.87917209  0.85337891  0.25859334    -0.80000
O1305       O  0.84877411  0.75823859  0.28294722    -0.78200
O1306       O  0.90472216  0.80359759  0.30689405    -1.14340
O1307       O  0.91752582  0.73004198  0.30863148    -0.73530
C1308       C  0.93479049  0.72987319  0.34270756     0.97180
C1309       C  0.95280692  0.87281482  0.33376949     0.93580
Al1310     Al  0.87587883  0.84117320  0.30016047     1.55560
O1311       O  0.97344829  0.77604599  0.31938462    -0.78150
C1312       C  0.82226369  0.77977156  0.27508967     0.97750
C1313       C  0.89792897  0.83368163  0.37251623     0.92630
O1314       O  0.93085502  0.82521462  0.37735094    -0.83470
O1315       O  0.93013389  0.91892015  0.12881815    -0.82930
C1316       C  0.87283665  0.90105185  0.48506383     0.96420
O1317       O  0.88000080  0.88262803  0.01249327    -0.72050
O1318       O  0.91851742  0.86561372  0.07986945    -0.75640
Al1319     Al  0.87554353  0.89775107  0.05304906     1.48980
C1320       C  0.95335856  0.87015370  0.08905809     0.91670
O1321       O  0.97125540  0.96703668  0.06954793    -0.81860
O1322       O  0.91325692  0.50958696  0.05358026    -0.75420
Al1323     Al  0.94635688  0.94289240  0.09579492     1.90120
O1324       O  0.92844101  0.96058116  0.01372760    -0.74490
O1325       O  0.84729275  0.97841237  0.02918764    -0.74340
O1326       O  0.86264163  0.93352462  0.48373526    -0.80000
O1327       O  0.82666143  0.92317356  0.02543201    -0.78200
O1328       O  0.90354401  0.93615628  0.05740214    -1.14340
O1329       O  0.87040810  0.90896972  0.09418235    -0.73530
C1330       C  0.89805744  0.90816377  0.12477790     0.97180
C1331       C  0.96046578  0.97037127  0.03586263     0.93580
Al1332     Al  0.88835355  0.96811590  0.02266298     1.55560
O1333       O  0.96591134  0.90095773  0.08823626    -0.78150
C1334       C  0.82062391  0.95711332  0.02272200     0.97750
C1335       C  0.92916787  0.51306054  0.08743940     0.92630
O1336       O  0.93028600  0.98665620  0.10669629    -0.83470
C1337       C  0.92029533  0.85479197  0.43574287    -0.10290
C1338       C  0.89029046  0.84850782  0.40182840     0.05900
C1339       C  0.85387256  0.85989880  0.39579536    -0.04060
C1340       C  0.84895715  0.87816312  0.42263572    -0.08510
C1341       C  0.87908474  0.88453172  0.45610663     0.05020
C1342       C  0.91492192  0.87212183  0.46273939    -0.03530
Br1343     Br  0.95816063  0.87902279  0.00792717    -0.03230
H1344       H  0.94827652  0.84665418  0.44127058     0.08930
H1345       H  0.82120659  0.88660589  0.41764957     0.06950
Br1346     Br  0.80852967  0.85133906  0.35237743    -0.03660
C1347       C  0.85535062  0.88671622  0.14987166    -0.10290
C1348       C  0.89233379  0.89058414  0.15411468     0.05900
C1349       C  0.92137042  0.87272018  0.18316627    -0.04060
C1350       C  0.91301506  0.85208785  0.20678553    -0.08510
C1351       C  0.87615333  0.84820639  0.20213053     0.05020
C1352       C  0.84725203  0.86598831  0.17362725    -0.03530
Br1353     Br  0.79664075  0.86325134  0.16696255    -0.03230
H1354       H  0.83237355  0.89973112  0.12771435     0.08930
H1355       H  0.93573698  0.83949771  0.22957105     0.06950
Br1356     Br  0.97278363  0.87380357  0.19184473    -0.03660
C1357       C  0.71516315  0.97524229  0.48441534    -0.10290
C1358       C  0.71453801  0.51334676  0.48275474     0.05900
C1359       C  0.74896877  0.53184930  0.49526288    -0.04060
C1360       C  0.78228148  0.51257469  0.00879525    -0.08510
C1361       C  0.78315005  0.97448262  0.01021651     0.05020
C1362       C  0.74878092  0.95587381  0.99793217    -0.03530
Br1363     Br  0.74549485  0.90444349  0.99892175    -0.03230
H1364       H  0.68923299  0.96009098  0.47539129     0.08930
H1365       H  0.80797038  0.52814999  0.01801560     0.06950
Br1366     Br  0.75354491  0.58332048  0.49475466    -0.03660
C1367       C  0.51578584  0.97310383  0.02521393    -0.10290
C1368       C  0.98265618  0.98862618  0.02080909     0.05900
C1369       C  0.96771092  0.51799151  0.49680327    -0.04060
C1370       C  0.98615800  0.53108044  0.47773659    -0.08510
C1371       C  0.51926384  0.51542844  0.48201899     0.05020
C1372       C  0.53396910  0.98581200  0.00584245    -0.03530
Br1373     Br  0.57721499  0.95908157  0.01198898    -0.03230
H1374       H  0.52658228  0.94987410  0.04247349     0.08930
H1375       H  0.97517336  0.55413962  0.46027989     0.06950
Br1376     Br  0.92304516  0.54284224  0.48927440    -0.03660
C1377       C  0.54352882  0.92850105  0.37756184    -0.10290
C1378       C  0.53009541  0.96105290  0.38338562     0.05900
C1379       C  0.49065379  0.96541878  0.36887109    -0.04060
C1380       C  0.96623638  0.93684750  0.35184611    -0.08510
C1381       C  0.97950899  0.90383353  0.34704565     0.05020
C1382       C  0.51880971  0.90039653  0.35870326    -0.03530
Br1383     Br  0.54147490  0.85919294  0.34899711    -0.03230
H1384       H  0.57336140  0.92521349  0.38698495     0.08930
H1385       H  0.93648410  0.94045401  0.34269696     0.06950
Br1386     Br  0.96629433  0.00878226  0.37071584    -0.03660
C1387       C  0.50701577  0.67276852  0.41696370    -0.10290
C1388       C  0.53259107  0.66607007  0.40310983     0.05900
C1389       C  0.52467189  0.67996359  0.36916531    -0.04060
C1390       C  0.99069191  0.69713718  0.34872590    -0.08510
C1391       C  0.96485716  0.70352268  0.36216242     0.05020
C1392       C  0.97408042  0.69223231  0.39734815    -0.03530
Br1393     Br  0.94203853  0.70160070  0.41924654    -0.03230
H1394       H  0.51213619  0.66172376  0.44277877     0.08930
H1395       H  0.98544378  0.70712676  0.32268028     0.06950
Br1396     Br  0.55877011  0.67631407  0.34889742    -0.03660
C1397       C  0.57990299  0.60809864  0.31061085    -0.10290
C1398       C  0.61017103  0.60285723  0.34435258     0.05900
C1399       C  0.64643837  0.61504338  0.34983000    -0.04060
C1400       C  0.65076393  0.63357877  0.32269039    -0.08510
C1401       C  0.62012716  0.63976319  0.28970024     0.05020
C1402       C  0.58461062  0.62634223  0.28364807    -0.03530
Br1403     Br  0.54077099  0.63365914  0.23958871    -0.03230
H1404       H  0.55209140  0.59917966  0.30549959     0.08930
H1405       H  0.67836450  0.64250265  0.32709045     0.06950
Br1406     Br  0.69229054  0.60786524  0.39289734    -0.03660
C1407       C  0.58981961  0.61501440  0.03292576    -0.10290
C1408       C  0.62688104  0.60476671  0.04253363     0.05900
C1409       C  0.65519681  0.61461394  0.07615043    -0.04060
C1410       C  0.64601948  0.63299749  0.10024096    -0.08510
C1411       C  0.60858699  0.64239040  0.09143832     0.05020
C1412       C  0.58039696  0.63368070  0.05674307    -0.03530
Br1413     Br  0.52865493  0.64603822  0.03965700    -0.03230
H1414       H  0.56796057  0.60886290  0.00624014     0.08930
H1415       H  0.66863490  0.63967843  0.12630188     0.06950
Br1416     Br  0.70675631  0.60503040  0.08931403    -0.03660
C1417       C  0.98973303  0.58426517  0.15335475    -0.10290
C1418       C  0.51953934  0.58704647  0.14415765     0.05900
C1419       C  0.51743283  0.56695011  0.11494743    -0.04060
C1420       C  0.98529508  0.54672415  0.09449268    -0.08510
C1421       C  0.95623471  0.54277139  0.10433293     0.05020
C1422       C  0.95907633  0.56122042  0.13466601    -0.03530
Br1423     Br  0.92102025  0.55691733  0.15034439    -0.03230
H1424       H  0.98990912  0.60040811  0.17483274     0.08930
H1425       H  0.98401747  0.53277688  0.07154080     0.06950
Br1426     Br  0.55694292  0.56615239  0.10101020    -0.03660
C1427       C  0.00064296  0.77873041  0.11256330    -0.10290
C1428       C  0.53849202  0.78896905  0.13293736     0.05900
C1429       C  0.54788169  0.82547654  0.13807741    -0.04060
C1430       C  0.51966050  0.85104610  0.12300853    -0.08510
C1431       C  0.98144191  0.84098842  0.10324525     0.05020
C1432       C  0.97215593  0.80417538  0.09826651    -0.03530
Br1433     Br  0.92163876  0.78655905  0.07265930    -0.03230
H1434       H  0.99282616  0.75054444  0.10872750     0.08930
H1435       H  0.52786773  0.87913246  0.12749563     0.06950
Br1436     Br  0.59881747  0.84148704  0.16448640    -0.03660
C1437       C  0.75480516  0.77576735  0.23131978    -0.10290
C1438       C  0.78442020  0.76366075  0.26312471     0.05900
C1439       C  0.77910923  0.73199486  0.27928555    -0.04060
C1440       C  0.74490622  0.71310593  0.26350292    -0.08510
C1441       C  0.71529757  0.72520786  0.23167728     0.05020
C1442       C  0.72063128  0.75688052  0.21553128    -0.03530
Br1443     Br  0.68271326  0.77477283  0.17082173    -0.03230
H1444       H  0.75874110  0.79918342  0.21787224     0.08930
H1445       H  0.74094440  0.68971202  0.27695516     0.06950
Br1446     Br  0.81707505  0.71419771  0.32401350    -0.03660
C1447       C  0.98599246  0.71521587  0.22439138    -0.10290
C1448       C  0.51349329  0.73651171  0.22192237     0.05900
C1449       C  0.52598808  0.76816477  0.24302182    -0.04060
C1450       C  0.51140455  0.77755246  0.26651523    -0.08510
C1451       C  0.98429651  0.75592257  0.26944974     0.05020
C1452       C  0.97125188  0.72461687  0.24768890    -0.03530
Br1453     Br  0.93315087  0.69310854  0.24805491    -0.03230
H1454       H  0.97699656  0.69039799  0.20921242     0.08930
H1455       H  0.52002777  0.80262319  0.28129118     0.06950
Br1456     Br  0.56236439  0.80031384  0.24030647    -0.03660
O1457       O  0.56780846  0.66493865  0.61619862    -0.82930
C1458       C  0.62563569  0.65553976  0.76002105     0.96420
O1459       O  0.61867025  0.63567458  0.73355244    -0.72050
O1460       O  0.58125026  0.61451050  0.66700697    -0.75640
Al1461     Al  0.62296308  0.64891421  0.69265042     1.48980
C1462       C  0.54656573  0.61718074  0.65877902     0.91670
O1463       O  0.52522473  0.71465489  0.67335338    -0.81860
O1464       O  0.58374194  0.76003165  0.68529781    -0.75420
Al1465     Al  0.55063045  0.68953258  0.64832621     1.90120
O1466       O  0.56962030  0.71474896  0.72887080    -0.74490
O1467       O  0.65110195  0.73093383  0.71197889    -0.74340
O1468       O  0.63502675  0.68839282  0.75979757    -0.80000
O1469       O  0.67114954  0.67548181  0.71946527    -0.78200
O1470       O  0.59416316  0.68657767  0.68649743    -1.14340
O1471       O  0.62796390  0.65928789  0.65138601    -0.73530
C1472       C  0.60073563  0.65733845  0.62056515     0.97180
C1473       C  0.53658223  0.72076233  0.70671618     0.93580
Al1474     Al  0.60936153  0.72103154  0.71900792     1.55560
O1475       O  0.53306609  0.64720672  0.65946187    -0.78150
C1476       C  0.67735924  0.70927885  0.71963438     0.97750
C1477       C  0.56576000  0.76036550  0.65131251     0.92510
O1478       O  0.56401424  0.73253617  0.63379582    -0.83470
O1479       O  0.55482586  0.51915425  0.88587072    -0.82930
C1480       C  0.63487761  0.58996687  0.51414517     0.96420
O1481       O  0.64184898  0.55671139  0.51260456    -0.72050
O1482       O  0.57511155  0.53580233  0.98590829    -0.75640
Al1483     Al  0.61058895  0.52599929  0.97138193     1.48980
C1484       C  0.54113440  0.53242686  0.96584132     0.91670
O1485       O  0.54360354  0.60706849  0.92187040    -0.81860
O1486       O  0.63081167  0.58418500  0.90387494    -0.75420
Al1487     Al  0.55212651  0.56345657  0.90541582     1.90120
O1488       O  0.59201207  0.63486370  0.92243983    -0.74490
O1489       O  0.67489326  0.56615057  0.97078101    -0.74340
O1490       O  0.62952309  0.61062821  0.98852973    -0.80000
O1491       O  0.64896560  0.51274300  0.96030663    -0.78200
O1492       O  0.59741870  0.56149828  0.94061043    -1.14340
O1493       O  0.57802061  0.98925596  0.93644060    -0.73530
C1494       C  0.55672108  0.99068423  0.90274513     0.97180
C1495       C  0.55829973  0.63537195  0.91791501     0.93580
Al1496     Al  0.62993548  0.59650937  0.94626348     1.55560
O1497       O  0.52771170  0.54128761  0.93293566    -0.78150
C1498       C  0.67782638  0.53202961  0.97000419     0.97750
C1499       C  0.60287367  0.58896553  0.87420326     0.92630
O1500       O  0.56961852  0.58540772  0.87149726    -0.83470
O1501       O  0.93396430  0.75739814  0.85943859    -0.82930
C1502       C  0.87098577  0.83313296  0.73217957     0.96420
O1503       O  0.86224929  0.80029246  0.73344677    -0.72050
O1504       O  0.92858203  0.77678119  0.76399444    -0.75640
Al1505     Al  0.88976405  0.76878802  0.77475520     1.48980
C1506       C  0.96181665  0.77108914  0.78567806     0.91670
O1507       O  0.96616786  0.84246698  0.83472214    -0.81860
O1508       O  0.87116784  0.83226668  0.84162479    -0.75420
Al1509     Al  0.94808081  0.80049942  0.84521858     1.90120
O1510       O  0.91784608  0.87577744  0.82460680    -0.74490
O1511       O  0.82801045  0.81367379  0.77465969    -0.74340
O1512       O  0.87917209  0.85337890  0.75859334    -0.80000
O1513       O  0.84877412  0.75823858  0.78294722    -0.78200
O1514       O  0.90472217  0.80359758  0.80689405    -1.14340
O1515       O  0.91752583  0.73004198  0.80863149    -0.73530
C1516       C  0.93479049  0.72987319  0.84270756     0.97180
C1517       C  0.95280692  0.87281481  0.83376948     0.93580
Al1518     Al  0.87587883  0.84117319  0.80016047     1.55560
O1519       O  0.97344830  0.77604599  0.81938462    -0.78150
C1520       C  0.82226369  0.77977155  0.77508967     0.97750
C1521       C  0.89792898  0.83368163  0.87251623     0.92630
O1522       O  0.93085503  0.82521462  0.87735094    -0.83470
O1523       O  0.93013390  0.91892015  0.62881815    -0.82930
C1524       C  0.87283667  0.90105188  0.98506383     0.96420
O1525       O  0.88000079  0.88262801  0.51249327    -0.72050
O1526       O  0.91851742  0.86561372  0.57986945    -0.75640
Al1527     Al  0.87554353  0.89775106  0.55304906     1.48980
C1528       C  0.95335856  0.87015369  0.58905810     0.91670
O1529       O  0.97125539  0.96703667  0.56954791    -0.81860
O1530       O  0.91325691  0.50958695  0.55358023    -0.75420
Al1531     Al  0.94635688  0.94289239  0.59579492     1.90120
O1532       O  0.92844100  0.96058113  0.51372759    -0.74490
O1533       O  0.84729275  0.97841236  0.52918764    -0.74340
O1534       O  0.86264165  0.93352464  0.98373525    -0.80000
O1535       O  0.82666143  0.92317354  0.52543202    -0.78200
O1536       O  0.90354401  0.93615627  0.55740214    -1.14340
O1537       O  0.87040810  0.90896972  0.59418236    -0.73530
C1538       C  0.89805745  0.90816377  0.62477791     0.97180
C1539       C  0.96046577  0.97037125  0.53586262     0.93580
Al1540     Al  0.88835354  0.96811588  0.52266298     1.55560
O1541       O  0.96591134  0.90095772  0.58823626    -0.78150
C1542       C  0.82062391  0.95711331  0.52272201     0.97750
C1543       C  0.92916787  0.51306054  0.58743938     0.92630
O1544       O  0.93028600  0.98665619  0.60669628    -0.83470
C1545       C  0.92029534  0.85479199  0.93574287    -0.10290
C1546       C  0.89029047  0.84850783  0.90182840     0.05900
C1547       C  0.85387257  0.85989882  0.89579536    -0.04060
C1548       C  0.84895716  0.87816314  0.92263571    -0.08510
C1549       C  0.87908475  0.88453174  0.95610663     0.05020
C1550       C  0.91492193  0.87212185  0.96273939    -0.03530
Br1551     Br  0.95816062  0.87902277  0.50792717    -0.03230
H1552       H  0.94827653  0.84665419  0.94127057     0.08930
H1553       H  0.82120660  0.88660591  0.91764956     0.06950
Br1554     Br  0.80852968  0.85133908  0.85237743    -0.03660
C1555       C  0.85535063  0.88671622  0.64987167    -0.10290
C1556       C  0.89233380  0.89058414  0.65411469     0.05900
C1557       C  0.92137043  0.87272017  0.68316627    -0.04060
C1558       C  0.91301506  0.85208783  0.70678552    -0.08510
C1559       C  0.87615333  0.84820638  0.70213053     0.05020
C1560       C  0.84725203  0.86598831  0.67362726    -0.03530
Br1561     Br  0.79664076  0.86325136  0.66696256    -0.03230
H1562       H  0.83237356  0.89973114  0.62771436     0.08930
H1563       H  0.93573698  0.83949768  0.72957104     0.06950
Br1564     Br  0.97278363  0.87380355  0.69184472    -0.03660
C1565       C  0.71516315  0.97524229  0.98441533    -0.10290
C1566       C  0.71453801  0.51334676  0.98275474     0.05900
C1567       C  0.74896876  0.53184930  0.99526288    -0.04060
C1568       C  0.78228148  0.51257469  0.50879525    -0.08510
C1569       C  0.78315005  0.97448261  0.51021652     0.05020
C1570       C  0.74878092  0.95587381  0.49793217    -0.03530
Br1571     Br  0.74549485  0.90444349  0.49892176    -0.03230
H1572       H  0.68923299  0.96009098  0.97539129     0.08930
H1573       H  0.80797038  0.52814998  0.51801560     0.06950
Br1574     Br  0.75354490  0.58332048  0.99475466    -0.03660
C1575       C  0.51578588  0.97310389  0.52521400    -0.10290
C1576       C  0.98265615  0.98862617  0.52080907     0.05900
C1577       C  0.96771099  0.51799157  0.99680337    -0.04060
C1578       C  0.98615804  0.53108049  0.97773666    -0.08510
C1579       C  0.51926381  0.51542842  0.98201896     0.05020
C1580       C  0.53396917  0.98581207  0.50584255    -0.03530
Br1581     Br  0.57721515  0.95908172  0.51198922    -0.03230
H1582       H  0.52658235  0.94987420  0.54247361     0.08930
H1583       H  0.97517343  0.55413971  0.96028001     0.06950
Br1584     Br  0.92304530  0.54284238  0.98927460    -0.03660
C1585       C  0.54352882  0.92850105  0.87756181    -0.10290
C1586       C  0.53009541  0.96105290  0.88338560     0.05900
C1587       C  0.49065379  0.96541878  0.86887107    -0.04060
C1588       C  0.96623638  0.93684750  0.85184610    -0.08510
C1589       C  0.97950899  0.90383353  0.84704564     0.05020
C1590       C  0.51880970  0.90039653  0.85870324    -0.03530
Br1591     Br  0.54147490  0.85919294  0.84899708    -0.03230
H1592       H  0.57336140  0.92521349  0.88698492     0.08930
H1593       H  0.93648410  0.94045401  0.84269696     0.06950
Br1594     Br  0.96629432  0.00878225  0.87071583    -0.03660
C1595       C  0.50701576  0.67276851  0.91696370    -0.10290
C1596       C  0.53259107  0.66607006  0.90310984     0.05900
C1597       C  0.52467190  0.67996359  0.86916533    -0.04060
C1598       C  0.99069192  0.69713718  0.84872591    -0.08510
C1599       C  0.96485716  0.70352267  0.86216242     0.05020
C1600       C  0.97408041  0.69223230  0.89734815    -0.03530
Br1601     Br  0.94203850  0.70160068  0.91924653    -0.03230
H1602       H  0.51213618  0.66172374  0.94277877     0.08930
H1603       H  0.98544380  0.70712677  0.82268030     0.06950
Br1604     Br  0.55877013  0.67631408  0.84889745    -0.03660
C1605       C  0.57990299  0.60809864  0.81061085    -0.10290
C1606       C  0.61017103  0.60285723  0.84435258     0.05900
C1607       C  0.64643837  0.61504337  0.84983000    -0.04060
C1608       C  0.65076393  0.63357876  0.82269039    -0.08510
C1609       C  0.62012716  0.63976318  0.78970024     0.05020
C1610       C  0.58461062  0.62634222  0.78364807    -0.03530
Br1611     Br  0.54077099  0.63365913  0.73958871    -0.03230
H1612       H  0.55209140  0.59917966  0.80549959     0.08930
H1613       H  0.67836450  0.64250264  0.82709045     0.06950
Br1614     Br  0.69229054  0.60786523  0.89289734    -0.03660
C1615       C  0.58981963  0.61501442  0.53292575    -0.10290
C1616       C  0.62688105  0.60476673  0.54253363     0.05900
C1617       C  0.65519683  0.61461395  0.57615043    -0.04060
C1618       C  0.64601949  0.63299749  0.60024096    -0.08510
C1619       C  0.60858700  0.64239041  0.59143832     0.05020
C1620       C  0.58039698  0.63368072  0.55674307    -0.03530
Br1621     Br  0.52865494  0.64603824  0.53965700    -0.03230
H1622       H  0.56796059  0.60886293  0.50624013     0.08930
H1623       H  0.66863491  0.63967842  0.62630189     0.06950
Br1624     Br  0.70675633  0.60503041  0.58931403    -0.03660
C1625       C  0.98973303  0.58426516  0.65335473    -0.10290
C1626       C  0.51953934  0.58704647  0.64415764     0.05900
C1627       C  0.51743282  0.56695011  0.61494741    -0.04060
C1628       C  0.98529507  0.54672416  0.59449265    -0.08510
C1629       C  0.95623471  0.54277139  0.60433291     0.05020
C1630       C  0.95907632  0.56122042  0.63466599    -0.03530
Br1631     Br  0.92102024  0.55691732  0.65034438    -0.03230
H1632       H  0.98990912  0.60040810  0.67483274     0.08930
H1633       H  0.98401745  0.53277688  0.57154075     0.06950
Br1634     Br  0.55694292  0.56615240  0.60101017    -0.03660
C1635       C  0.00064296  0.77873040  0.61256330    -0.10290
C1636       C  0.53849203  0.78896904  0.63293737     0.05900
C1637       C  0.54788169  0.82547654  0.63807742    -0.04060
C1638       C  0.51966050  0.85104609  0.62300855    -0.08510
C1639       C  0.98144191  0.84098841  0.60324525     0.05020
C1640       C  0.97215593  0.80417538  0.59826651    -0.03530
Br1641     Br  0.92163876  0.78655904  0.57265929    -0.03230
H1642       H  0.99282617  0.75054443  0.60872750     0.08930
H1643       H  0.52786772  0.87913245  0.62749564     0.06950
Br1644     Br  0.59881747  0.84148704  0.66448642    -0.03660
C1645       C  0.75480517  0.77576734  0.73131978    -0.10290
C1646       C  0.78442021  0.76366073  0.76312471     0.05900
C1647       C  0.77910923  0.73199485  0.77928555    -0.04060
C1648       C  0.74490623  0.71310592  0.76350293    -0.08510
C1649       C  0.71529757  0.72520785  0.73167728     0.05020
C1650       C  0.72063129  0.75688051  0.71553128    -0.03530
Br1651     Br  0.68271326  0.77477282  0.67082173    -0.03230
H1652       H  0.75874110  0.79918341  0.71787225     0.08930
H1653       H  0.74094440  0.68971201  0.77695516     0.06950
Br1654     Br  0.81707505  0.71419769  0.82401350    -0.03660
C1655       C  0.98599247  0.71521586  0.72439138    -0.10290
C1656       C  0.51349329  0.73651170  0.72192237     0.05900
C1657       C  0.52598808  0.76816477  0.74302181    -0.04060
C1658       C  0.51140455  0.77755246  0.76651522    -0.08510
C1659       C  0.98429652  0.75592256  0.76944974     0.05020
C1660       C  0.97125189  0.72461686  0.74768891    -0.03530
Br1661     Br  0.93315089  0.69310852  0.74805494    -0.03230
H1662       H  0.97699657  0.69039797  0.70921243     0.08930
H1663       H  0.52002776  0.80262319  0.78129117     0.06950
Br1664     Br  0.56236437  0.80031385  0.74030645    -0.03660
loop_ 
_geom_bond_atom_site_label_1 
_geom_bond_atom_site_label_2 
_geom_bond_distance 
_geom_bond_site_symmetry_2 
_ccdc_geom_bond_type 
O1           C16   1.281       .  A
O1           Al9   1.993       .  S
C2           O12   1.276       .  A
C2            O3   1.254       .  A
C2          C153   1.475       .  S
O3           Al5   1.860       .  S
O4            C6   1.275       .  A
O4           Al5   1.980       .  S
Al5          O13   1.992       .  S
Al5          O15   1.864       .  S
Al5          O14   1.767       .  S
C6           O19   1.252       .  A
C6          C170   1.477       .  S
O7           C17   1.278       .  A
O7           Al9   1.998       .  S
O8           C21   1.271       .  A
O8          Al18   1.964       .  S
Al9          O22   1.867       .  S
Al9          O19   1.860       .  S
Al9          O14   1.757       .  S
O10          C17   1.247       .  A
O10         Al18   1.827       .  S
O11          C20   1.252       .  A
O11         Al18   1.856       .  S
O12         Al18   1.967       .  S
O13          C20   1.278       .  A
O14         Al18   1.764       .  S
O15          C16   1.259       .  A
C16         C163   1.499       .  S
C17         C200   1.465       .  S
C20         C193   1.484       .  S
C21          O22   1.253       .  A
C21         C180   1.475       .  S
O23         C454   1.255   1_545  A
O23         Al31   1.868       .  S
C24          O25   1.279       .  A
C24         O242   1.255   1_554  A
C24         C160   1.472       .  S
O25        Al235   1.969   1_554  S
O26          C28   1.239       .  A
O26         Al27   1.820       .  S
Al27         O35   1.865       .  S
Al27        O233   1.969       .  S
Al27        O453   1.990   1_545  S
Al27         O36   1.752       .  S
C28          O41   1.275       .  A
C28         C123   1.465       .  S
O29          C39   1.247       .  A
O29         Al31   1.858       .  S
O30          C43   1.253       .  A
O30         Al40   1.849       .  S
Al31         O44   2.012       .  S
Al31         O41   1.988       .  S
Al31         O36   1.746       .  S
O32          C39   1.275       .  A
O32         Al40   2.000       .  S
O33          C42   1.278       .  A
O33         Al40   1.983       .  S
O34         C232   1.255       .  A
O34         Al40   1.853       .  S
O35          C42   1.255       .  A
O36         Al40   1.770       .  S
O37          C38   1.277       .  A
O37        Al443   1.990       .  S
C38         O439   1.255       .  A
C38         C130   1.486       .  S
C39         C140   1.480       .  S
C42         C110   1.496       .  S
C43          O44   1.289       .  A
C43         C150   1.495       .  S
O45          C60   1.251       .  A
O45         Al53   1.877       .  S
C46          O56   1.253       .  A
C46          O47   1.275       .  A
C46         C103   1.471       .  S
O47         Al49   1.966       .  S
O48          C50   1.245       .  A
O48         Al49   1.824       .  S
Al49         O57   1.859       .  S
Al49         O59   1.979       .  S
Al49         O58   1.764       .  S
C50          O63   1.283       .  A
C50         C203   1.468       .  S
O51          C61   1.247       .  A
O51         Al53   1.848       .  S
O52          C65   1.252       .  A
O52         Al62   1.856       .  S
Al53         O66   1.997       .  S
Al53         O63   2.011       .  S
Al53         O58   1.756       .  S
O54          C61   1.279       .  A
O54         Al62   1.984       .  S
O55          C64   1.281       .  A
O55         Al62   1.994       .  S
O56         Al62   1.857       .  S
O57          C64   1.256       .  A
O58         Al62   1.762       .  S
O59          C60   1.273       .  A
C60         C143   1.485       .  S
C61         C133   1.491       .  S
C64         C190   1.484       .  S
C65          O66   1.282       .  A
C65          C90   1.499       .  S
O67          C82   1.277       .  A
O67         Al75   1.979       .  S
C68          O78   1.272       .  A
C68         O277   1.253       .  A
C68          C93   1.480       .  S
O69         C276   1.253   1_554  A
O69         Al71   1.873       .  S
O70          C72   1.277       .  A
O70         Al71   1.984       .  S
Al71         O79   2.011       .  S
Al71         O81   1.872       .  S
Al71         O80   1.765       .  S
C72          O85   1.253       .  A
C72         C183   1.487       .  S
O73          C83   1.280       .  A
O73         Al75   1.992       .  S
O74          C87   1.270       .  A
O74        Al500   1.965   1_545  S
Al75         O88   1.888       .  S
Al75         O85   1.844       .  S
Al75         O80   1.756       .  S
O76          C83   1.246       .  A
O76         Al84   1.829       .  S
O77          C86   1.250       .  A
O77         Al84   1.828       .  S
O78        Al292   1.959       .  S
O79          C86   1.283       .  A
O80         Al84   1.761       .  S
O81          C82   1.259       .  A
C82         C100   1.494       .  S
C83         C120   1.462       .  S
Al84        O490   1.965       .  S
Al84        O286   1.959   1_554  S
C86         C113   1.500       .  S
C87         O504   1.257   1_545  A
C87         C173   1.477       .  S
O88         C503   1.257       .  A
C89          C90   1.402       .  A
C89          C94   1.402       .  A
C89          H96   1.083       .  S
C90          C91   1.431       .  A
C91          C92   1.403       .  A
C91         Br98   1.925       .  S
C92          C93   1.393       .  A
C92          H97   1.083       .  S
C93          C94   1.415       .  A
C94        Br303   1.916       .  S
Br95        C302   1.916   1_554  S
C99         C100   1.415       .  A
C99         C104   1.403       .  A
C99         H106   1.084       .  S
C100        C101   1.415       .  A
C101        C102   1.402       .  A
C101       Br108   1.921       .  S
C102        C103   1.404       .  A
C102        H107   1.085       .  S
C103        C104   1.401       .  A
C104       Br105   1.918       .  S
C109        C526   1.419       .  A
C109        C322   1.407       .  A
C109        H116   1.083       .  S
C110        C111   1.406       .  A
C110        C525   1.419   1_545  A
C111        C320   1.396       .  A
C111       Br118   1.923       .  S
C112        C319   1.396   1_554  A
C112        C529   1.418   1_545  A
C112        H117   1.083       .  S
C113        C114   1.407   1_554  A
C113        C528   1.418       .  A
C114        C317   1.407       .  A
C114       Br115   1.918       .  S
C119        C124   1.390       .  A
C119        C952   1.386   1_455  A
C119        H126   1.085       .  S
C120        C951   1.386       .  A
C120        C745   1.422   1_554  A
C121        C122   1.393       .  A
C121        C744   1.422   1_545  A
C121       Br128   1.917       .  S
C122        C955   1.388       .  A
C122        H127   1.084       .  S
C123        C954   1.388   1_455  A
C123        C748   1.425   1_545  A
C124        C747   1.425   1_554  A
C124       Br125   1.919       .  S
C129        C130   1.396       .  A
C129        C134   1.405       .  A
C129        H136   1.083       .  S
C130        C131   1.423   1_455  A
C131        C964   1.395       .  A
C131       Br970   1.913       .  S
C132        C133   1.394       .  A
C132        C963   1.395       .  A
C132        H137   1.083       .  S
C133        C966   1.428       .  A
C134        C965   1.428   1_455  A
C134       Br135   1.924       .  S
Br138       C963   1.913       .  S
C139        C140   1.410       .  A
C139        C976   1.405   1_455  A
C139        H146   1.084       .  S
C140        C141   1.406       .  A
C141        C974   1.397   1_455  A
C141       Br148   1.911       .  S
C142        C143   1.405       .  A
C142        C973   1.397       .  A
C142        H147   1.078       .  S
C143        C144   1.410       .  A
C144        C971   1.405       .  A
C144       Br145   1.918       .  S
C149        C150   1.399       .  A
C149        C154   1.397       .  A
C149        H156   1.083       .  S
C150        C151   1.432       .  A
C151        C152   1.402       .  A
C151       Br158   1.925       .  S
C152        C153   1.391       .  A
C152        H157   1.083       .  S
C153        C154   1.412       .  A
C154       Br155   1.906       .  S
C159        C160   1.407       .  A
C159        C164   1.402       .  A
C159        H166   1.086       .  S
C160        C161   1.397       .  A
C161        C162   1.401       .  A
C161       Br168   1.917       .  S
C162        C163   1.419       .  A
C162        H167   1.084       .  S
C163        C164   1.414       .  A
C164       Br165   1.921       .  S
C169        C174   1.403       .  A
C169       C1002   1.412       .  A
C169        H176   1.080       .  S
C170        C171   1.404       .  A
C170       C1001   1.412   1_455  A
C171       C1004   1.394   1_455  A
C171       Br178   1.917       .  S
C172        C173   1.405       .  A
C172       C1003   1.394       .  A
C172        H177   1.073       .  S
C173        C174   1.403       .  A
C174       Br175   1.916       .  S
C179        C184   1.399       .  A
C179       C1012   1.411       .  A
C179        H186   1.083       .  S
C180        C181   1.397       .  A
C180       C1011   1.411       .  A
C181        C182   1.398       .  A
C181       Br188   1.917       .  S
C182       C1015   1.418   1_455  A
C182        H187   1.083       .  S
C183        C184   1.407       .  A
C183       C1014   1.418       .  A
C184       Br185   1.920       .  S
C189        C190   1.400       .  A
C189        C194   1.403       .  A
C189        H196   1.084       .  S
C190        C191   1.417       .  A
C191        C192   1.404       .  A
C191       Br198   1.921       .  S
C192        C193   1.400       .  A
C192        H197   1.083       .  S
C193        C194   1.418       .  A
C194       Br195   1.921       .  S
C199        C204   1.395       .  A
C199       C1032   1.391       .  A
C199        H206   1.084       .  S
C200        C201   1.418       .  A
C200       C1031   1.391   1_455  A
C201        C202   1.398       .  A
C201       Br208   1.917       .  S
C202       C1035   1.393   1_455  A
C202        H207   1.084       .  S
C203        C204   1.422       .  A
C203       C1034   1.393       .  A
C204       Br205   1.919       .  S
O209        C224   1.281       .  A
O209       Al217   1.993       .  S
C210        O220   1.276       .  A
C210        O211   1.254       .  A
C210        C361   1.475       .  S
O211       Al213   1.860       .  S
O212        C214   1.275       .  A
O212       Al213   1.980       .  S
Al213       O221   1.992       .  S
Al213       O223   1.864       .  S
Al213       O222   1.767       .  S
C214        O227   1.252       .  A
C214        C378   1.477       .  S
O215        C225   1.278       .  A
O215       Al217   1.998       .  S
O216        C229   1.271       .  A
O216       Al226   1.964       .  S
Al217       O230   1.867       .  S
Al217       O227   1.860       .  S
Al217       O222   1.757       .  S
O218        C225   1.247       .  A
O218       Al226   1.827       .  S
O219        C228   1.252       .  A
O219       Al226   1.856       .  S
O220       Al226   1.967       .  S
O221        C228   1.278       .  A
O222       Al226   1.764       .  S
O223        C224   1.259       .  A
C224        C371   1.499       .  S
C225        C408   1.465       .  S
C228        C401   1.484       .  S
C229        O230   1.253       .  A
C229        C388   1.475       .  S
O231        C662   1.255   1_545  A
O231       Al239   1.868       .  S
C232        O233   1.279       .  A
C232        C368   1.472       .  S
O234        C236   1.239       .  A
O234       Al235   1.820       .  S
Al235       O243   1.865       .  S
Al235       O661   1.990   1_545  S
Al235       O244   1.752       .  S
C236        O249   1.275       .  A
C236        C331   1.465       .  S
O237        C247   1.247       .  A
O237       Al239   1.858       .  S
O238        C251   1.253       .  A
O238       Al248   1.849       .  S
Al239       O252   2.012       .  S
Al239       O249   1.988       .  S
Al239       O244   1.746       .  S
O240        C247   1.275       .  A
O240       Al248   2.000       .  S
O241        C250   1.278       .  A
O241       Al248   1.983       .  S
O242       Al248   1.853       .  S
O243        C250   1.255       .  A
O244       Al248   1.770       .  S
O245        C246   1.277       .  A
O245       Al651   1.990       .  S
C246        O647   1.255       .  A
C246        C338   1.486       .  S
C247        C348   1.480       .  S
C250        C318   1.496       .  S
C251        O252   1.289       .  A
C251        C358   1.495       .  S
O253        C268   1.251       .  A
O253       Al261   1.877       .  S
C254        O264   1.253       .  A
C254        O255   1.275       .  A
C254        C311   1.471       .  S
O255       Al257   1.966       .  S
O256        C258   1.245       .  A
O256       Al257   1.824       .  S
Al257       O265   1.859       .  S
Al257       O267   1.979       .  S
Al257       O266   1.764       .  S
C258        O271   1.283       .  A
C258        C411   1.468       .  S
O259        C269   1.247       .  A
O259       Al261   1.848       .  S
O260        C273   1.252       .  A
O260       Al270   1.856       .  S
Al261       O274   1.997       .  S
Al261       O271   2.011       .  S
Al261       O266   1.756       .  S
O262        C269   1.279       .  A
O262       Al270   1.984       .  S
O263        C272   1.281       .  A
O263       Al270   1.994       .  S
O264       Al270   1.857       .  S
O265        C272   1.256       .  A
O266       Al270   1.762       .  S
O267        C268   1.273       .  A
C268        C351   1.485       .  S
C269        C341   1.491       .  S
C272        C398   1.484       .  S
C273        O274   1.282       .  A
C273        C298   1.499       .  S
O275        C290   1.277       .  A
O275       Al283   1.979       .  S
C276        O286   1.272       .  A
C276        C301   1.480       .  S
O277       Al279   1.873       .  S
O278        C280   1.277       .  A
O278       Al279   1.984       .  S
Al279       O287   2.011       .  S
Al279       O289   1.872       .  S
Al279       O288   1.765       .  S
C280        O293   1.253       .  A
C280        C391   1.487       .  S
O281        C291   1.280       .  A
O281       Al283   1.992       .  S
O282        C295   1.270       .  A
O282       Al708   1.965   1_545  S
Al283       O296   1.888       .  S
Al283       O293   1.844       .  S
Al283       O288   1.756       .  S
O284        C291   1.246       .  A
O284       Al292   1.829       .  S
O285        C294   1.250       .  A
O285       Al292   1.828       .  S
O287        C294   1.283       .  A
O288       Al292   1.761       .  S
O289        C290   1.259       .  A
C290        C308   1.494       .  S
C291        C328   1.462       .  S
Al292       O698   1.965       .  S
C294        C321   1.500       .  S
C295        O712   1.257   1_545  A
C295        C381   1.477       .  S
O296        C711   1.257       .  A
C297        C298   1.402       .  A
C297        C302   1.402       .  A
C297        H304   1.083       .  S
C298        C299   1.431       .  A
C299        C300   1.403       .  A
C299       Br306   1.925       .  S
C300        C301   1.393       .  A
C300        H305   1.083       .  S
C301        C302   1.415       .  A
C307        C308   1.415       .  A
C307        C312   1.403       .  A
C307        H314   1.084       .  S
C308        C309   1.415       .  A
C309        C310   1.402       .  A
C309       Br316   1.921       .  S
C310        C311   1.404       .  A
C310        H315   1.085       .  S
C311        C312   1.401       .  A
C312       Br313   1.918       .  S
C317        C734   1.419       .  A
C317        H324   1.083       .  S
C318        C733   1.419   1_545  A
C318        C319   1.406       .  A
C319       Br326   1.923       .  S
C320        C737   1.418   1_545  A
C320        H325   1.083       .  S
C321        C736   1.418       .  A
C321        C322   1.407       .  A
C322       Br323   1.918       .  S
C327       C1160   1.386   1_455  A
C327        C332   1.390       .  A
C327        H334   1.085       .  S
C328       C1159   1.386       .  A
C328        C537   1.422       .  A
C329        C536   1.422   1_546  A
C329        C330   1.393       .  A
C329       Br336   1.917       .  S
C330       C1163   1.388       .  A
C330        H335   1.084       .  S
C331       C1162   1.388   1_455  A
C331        C540   1.425   1_546  A
C332        C539   1.425       .  A
C332       Br333   1.919       .  S
C337        C338   1.396       .  A
C337        C342   1.405       .  A
C337        H344   1.083       .  S
C338        C339   1.423   1_455  A
C339       C1172   1.395       .  A
C339      Br1178   1.913       .  S
C340       C1171   1.395       .  A
C340        C341   1.394       .  A
C340        H345   1.083       .  S
C341       C1174   1.428       .  A
C342       C1173   1.428   1_455  A
C342       Br343   1.924       .  S
Br346      C1171   1.913       .  S
C347        C348   1.410       .  A
C347       C1184   1.405   1_455  A
C347        H354   1.084       .  S
C348        C349   1.406       .  A
C349       C1182   1.397   1_455  A
C349       Br356   1.911       .  S
C350       C1181   1.397       .  A
C350        C351   1.405       .  A
C350        H355   1.078       .  S
C351        C352   1.410       .  A
C352       C1179   1.405       .  A
C352       Br353   1.918       .  S
C357        C358   1.399       .  A
C357        C362   1.397       .  A
C357        H364   1.083       .  S
C358        C359   1.432       .  A
C359        C360   1.402       .  A
C359       Br366   1.925       .  S
C360        C361   1.391       .  A
C360        H365   1.083       .  S
C361        C362   1.412       .  A
C362       Br363   1.906       .  S
C367        C368   1.407       .  A
C367        C372   1.402       .  A
C367        H374   1.086       .  S
C368        C369   1.397       .  A
C369        C370   1.401       .  A
C369       Br376   1.917       .  S
C370        C371   1.419       .  A
C370        H375   1.084       .  S
C371        C372   1.414       .  A
C372       Br373   1.921       .  S
C377       C1210   1.412       .  A
C377        C382   1.403       .  A
C377        H384   1.080       .  S
C378       C1209   1.412   1_455  A
C378        C379   1.404       .  A
C379       C1212   1.394   1_455  A
C379       Br386   1.917       .  S
C380       C1211   1.394       .  A
C380        C381   1.405       .  A
C380        H385   1.073       .  S
C381        C382   1.403       .  A
C382       Br383   1.916       .  S
C387       C1220   1.411       .  A
C387        C392   1.399       .  A
C387        H394   1.083       .  S
C388       C1219   1.411       .  A
C388        C389   1.397       .  A
C389        C390   1.398       .  A
C389       Br396   1.917       .  S
C390       C1223   1.418   1_455  A
C390        H395   1.083       .  S
C391       C1222   1.418       .  A
C391        C392   1.407       .  A
C392       Br393   1.920       .  S
C397        C398   1.400       .  A
C397        C402   1.403       .  A
C397        H404   1.084       .  S
C398        C399   1.417       .  A
C399        C400   1.404       .  A
C399       Br406   1.921       .  S
C400        C401   1.400       .  A
C400        H405   1.083       .  S
C401        C402   1.418       .  A
C402       Br403   1.921       .  S
C407       C1240   1.391       .  A
C407        C412   1.395       .  A
C407        H414   1.084       .  S
C408       C1239   1.391   1_455  A
C408        C409   1.418       .  A
C409        C410   1.398       .  A
C409       Br416   1.917       .  S
C410       C1243   1.393   1_455  A
C410        H415   1.084       .  S
C411       C1242   1.393       .  A
C411        C412   1.422       .  A
C412       Br413   1.919       .  S
O417        C432   1.281       .  A
O417       Al425   1.993       .  S
C418        O428   1.276       .  A
C418        O419   1.254       .  A
C418        C569   1.475       .  S
O419       Al421   1.860       .  S
O420        C422   1.275       .  A
O420       Al421   1.980       .  S
Al421       O429   1.992       .  S
Al421       O431   1.864       .  S
Al421       O430   1.767       .  S
C422        O435   1.252       .  A
C422        C586   1.477       .  S
O423        C433   1.278       .  A
O423       Al425   1.998       .  S
O424        C437   1.271       .  A
O424       Al434   1.964       .  S
Al425       O438   1.867       .  S
Al425       O435   1.860       .  S
Al425       O430   1.757       .  S
O426        C433   1.247       .  A
O426       Al434   1.827       .  S
O427        C436   1.252       .  A
O427       Al434   1.856       .  S
O428       Al434   1.967       .  S
O429        C436   1.278       .  A
O430       Al434   1.764       .  S
O431        C432   1.259       .  A
C432        C579   1.499       .  S
C433        C616   1.465       .  S
C436        C609   1.484       .  S
C437        O438   1.253       .  A
C437        C596   1.475       .  S
O439       Al447   1.868       .  S
C440        O658   1.255   1_554  A
C440        O441   1.279       .  A
C440        C576   1.472       .  S
O441       Al651   1.969   1_554  S
O442        C444   1.239       .  A
O442       Al443   1.820       .  S
Al443       O649   1.969       .  S
Al443       O451   1.865       .  S
Al443       O452   1.752       .  S
C444        O457   1.275       .  A
C444        C539   1.465       .  S
O445        C455   1.247       .  A
O445       Al447   1.858       .  S
O446        C459   1.253       .  A
O446       Al456   1.849       .  S
Al447       O460   2.012       .  S
Al447       O457   1.988       .  S
Al447       O452   1.746       .  S
O448        C455   1.275       .  A
O448       Al456   2.000       .  S
O449        C458   1.278       .  A
O449       Al456   1.983       .  S
O450        C648   1.255       .  A
O450       Al456   1.853       .  S
O451        C458   1.255       .  A
O452       Al456   1.770       .  S
O453        C454   1.277       .  A
C454        C546   1.486       .  S
C455        C556   1.480       .  S
C458        C526   1.496       .  S
C459        O460   1.289       .  A
C459        C566   1.495       .  S
O461        C476   1.251       .  A
O461       Al469   1.877       .  S
C462        O472   1.253       .  A
C462        O463   1.275       .  A
C462        C519   1.471       .  S
O463       Al465   1.966       .  S
O464        C466   1.245       .  A
O464       Al465   1.824       .  S
Al465       O473   1.859       .  S
Al465       O475   1.979       .  S
Al465       O474   1.764       .  S
C466        O479   1.283       .  A
C466        C619   1.468       .  S
O467        C477   1.247       .  A
O467       Al469   1.848       .  S
O468        C481   1.252       .  A
O468       Al478   1.856       .  S
Al469       O482   1.997       .  S
Al469       O479   2.011       .  S
Al469       O474   1.756       .  S
O470        C477   1.279       .  A
O470       Al478   1.984       .  S
O471        C480   1.281       .  A
O471       Al478   1.994       .  S
O472       Al478   1.857       .  S
O473        C480   1.256       .  A
O474       Al478   1.762       .  S
O475        C476   1.273       .  A
C476        C559   1.485       .  S
C477        C549   1.491       .  S
C480        C606   1.484       .  S
C481        O482   1.282       .  A
C481        C506   1.499       .  S
O483        C498   1.277       .  A
O483       Al491   1.979       .  S
C484        O494   1.272       .  A
C484        O693   1.253       .  A
C484        C509   1.480       .  S
O485        C692   1.253   1_554  A
O485       Al487   1.873       .  S
O486        C488   1.277       .  A
O486       Al487   1.984       .  S
Al487       O495   2.011       .  S
Al487       O497   1.872       .  S
Al487       O496   1.765       .  S
C488        O501   1.253       .  A
C488        C599   1.487       .  S
O489        C499   1.280       .  A
O489       Al491   1.992       .  S
O490        C503   1.270       .  A
Al491       O504   1.888       .  S
Al491       O501   1.844       .  S
Al491       O496   1.756       .  S
O492        C499   1.246       .  A
O492       Al500   1.829       .  S
O493        C502   1.250       .  A
O493       Al500   1.828       .  S
O494       Al708   1.959       .  S
O495        C502   1.283       .  A
O496       Al500   1.761       .  S
O497        C498   1.259       .  A
C498        C516   1.494       .  S
C499        C536   1.462       .  S
Al500       O702   1.959   1_554  S
C502        C529   1.500       .  S
C503        C589   1.477       .  S
C505        C506   1.402       .  A
C505        C510   1.402       .  A
C505        H512   1.083       .  S
C506        C507   1.431       .  A
C507        C508   1.403       .  A
C507       Br514   1.925       .  S
C508        C509   1.393       .  A
C508        H513   1.083       .  S
C509        C510   1.415       .  A
C510       Br719   1.916       .  S
Br511       C718   1.916   1_554  S
C515        C516   1.415       .  A
C515        C520   1.403       .  A
C515        H522   1.084       .  S
C516        C517   1.415       .  A
C517        C518   1.402       .  A
C517       Br524   1.921       .  S
C518        C519   1.404       .  A
C518        H523   1.085       .  S
C519        C520   1.401       .  A
C520       Br521   1.918       .  S
C525        C738   1.407       .  A
C525        H532   1.083       .  S
C526        C527   1.406       .  A
C527        C736   1.396       .  A
C527       Br534   1.923       .  S
C528        C735   1.396   1_554  A
C528        H533   1.083       .  S
C529        C530   1.407   1_554  A
C530        C733   1.407       .  A
C530       Br531   1.918       .  S
C535       C1368   1.386   1_455  A
C535        C540   1.390       .  A
C535        H542   1.085       .  S
C536       C1367   1.386       .  A
C537        C538   1.393       .  A
C537       Br544   1.917       .  S
C538       C1371   1.388       .  A
C538        H543   1.084       .  S
C539       C1370   1.388   1_455  A
C540       Br541   1.919       .  S
C545        C546   1.396       .  A
C545        C550   1.405       .  A
C545        H552   1.083       .  S
C546        C547   1.423   1_455  A
C547       C1380   1.395       .  A
C547      Br1386   1.913   1_565  S
C548       C1379   1.395       .  A
C548        C549   1.394       .  A
C548        H553   1.083       .  S
C549       C1382   1.428       .  A
C550       C1381   1.428   1_455  A
C550       Br551   1.924       .  S
Br554      C1379   1.913   1_545  S
C555        C556   1.410       .  A
C555       C1392   1.405   1_455  A
C555        H562   1.084       .  S
C556        C557   1.406       .  A
C557       C1390   1.397   1_455  A
C557       Br564   1.911       .  S
C558       C1389   1.397       .  A
C558        C559   1.405       .  A
C558        H563   1.078       .  S
C559        C560   1.410       .  A
C560       C1387   1.405       .  A
C560       Br561   1.918       .  S
C565        C566   1.399       .  A
C565        C570   1.397       .  A
C565        H572   1.083       .  S
C566        C567   1.432       .  A
C567        C568   1.402       .  A
C567       Br574   1.925       .  S
C568        C569   1.391       .  A
C568        H573   1.083       .  S
C569        C570   1.412       .  A
C570       Br571   1.906       .  S
C575        C576   1.407       .  A
C575        C580   1.402       .  A
C575        H582   1.086       .  S
C576        C577   1.397       .  A
C577        C578   1.401       .  A
C577       Br584   1.917       .  S
C578        C579   1.419       .  A
C578        H583   1.084       .  S
C579        C580   1.414       .  A
C580       Br581   1.921       .  S
C585       C1418   1.412       .  A
C585        C590   1.403       .  A
C585        H592   1.080       .  S
C586       C1417   1.412   1_455  A
C586        C587   1.404       .  A
C587       C1420   1.394   1_455  A
C587       Br594   1.917       .  S
C588       C1419   1.394       .  A
C588        C589   1.405       .  A
C588        H593   1.073       .  S
C589        C590   1.403       .  A
C590       Br591   1.916       .  S
C595       C1428   1.411       .  A
C595        C600   1.399       .  A
C595        H602   1.083       .  S
C596       C1427   1.411       .  A
C596        C597   1.397       .  A
C597        C598   1.398       .  A
C597       Br604   1.917       .  S
C598       C1431   1.418   1_455  A
C598        H603   1.083       .  S
C599       C1430   1.418       .  A
C599        C600   1.407       .  A
C600       Br601   1.920       .  S
C605        C606   1.400       .  A
C605        C610   1.403       .  A
C605        H612   1.084       .  S
C606        C607   1.417       .  A
C607        C608   1.404       .  A
C607       Br614   1.921       .  S
C608        C609   1.400       .  A
C608        H613   1.083       .  S
C609        C610   1.418       .  A
C610       Br611   1.921       .  S
C615       C1448   1.391       .  A
C615        C620   1.395       .  A
C615        H622   1.084       .  S
C616       C1447   1.391   1_455  A
C616        C617   1.418       .  A
C617        C618   1.398       .  A
C617       Br624   1.917       .  S
C618       C1451   1.393   1_455  A
C618        H623   1.084       .  S
C619       C1450   1.393       .  A
C619        C620   1.422       .  A
C620       Br621   1.919       .  S
O625        C640   1.281       .  A
O625       Al633   1.993       .  S
C626        O636   1.276       .  A
C626        O627   1.254       .  A
C626        C777   1.475       .  S
O627       Al629   1.860       .  S
O628        C630   1.275       .  A
O628       Al629   1.980       .  S
Al629       O637   1.992       .  S
Al629       O639   1.864       .  S
Al629       O638   1.767       .  S
C630        O643   1.252       .  A
C630        C794   1.477       .  S
O631        C641   1.278       .  A
O631       Al633   1.998       .  S
O632        C645   1.271       .  A
O632       Al642   1.964       .  S
Al633       O646   1.867       .  S
Al633       O643   1.860       .  S
Al633       O638   1.757       .  S
O634        C641   1.247       .  A
O634       Al642   1.827       .  S
O635        C644   1.252       .  A
O635       Al642   1.856       .  S
O636       Al642   1.967       .  S
O637        C644   1.278       .  A
O638       Al642   1.764       .  S
O639        C640   1.259       .  A
C640        C787   1.499       .  S
C641        C824   1.465       .  S
C644        C817   1.484       .  S
C645        O646   1.253       .  A
C645        C804   1.475       .  S
O647       Al655   1.868       .  S
C648        O649   1.279       .  A
C648        C784   1.472       .  S
O650        C652   1.239       .  A
O650       Al651   1.820       .  S
Al651       O659   1.865       .  S
Al651       O660   1.752       .  S
C652        O665   1.275       .  A
C652        C747   1.465       .  S
O653        C663   1.247       .  A
O653       Al655   1.858       .  S
O654        C667   1.253       .  A
O654       Al664   1.849       .  S
Al655       O668   2.012       .  S
Al655       O665   1.988       .  S
Al655       O660   1.746       .  S
O656        C663   1.275       .  A
O656       Al664   2.000       .  S
O657        C666   1.278       .  A
O657       Al664   1.983       .  S
O658       Al664   1.853       .  S
O659        C666   1.255       .  A
O660       Al664   1.770       .  S
O661        C662   1.277       .  A
C662        C754   1.486       .  S
C663        C764   1.480       .  S
C666        C734   1.496       .  S
C667        O668   1.289       .  A
C667        C774   1.495       .  S
O669        C684   1.251       .  A
O669       Al677   1.877       .  S
C670        O680   1.253       .  A
C670        O671   1.275       .  A
C670        C727   1.471       .  S
O671       Al673   1.966       .  S
O672        C674   1.245       .  A
O672       Al673   1.824       .  S
Al673       O681   1.859       .  S
Al673       O683   1.979       .  S
Al673       O682   1.764       .  S
C674        O687   1.283       .  A
C674        C827   1.468       .  S
O675        C685   1.247       .  A
O675       Al677   1.848       .  S
O676        C689   1.252       .  A
O676       Al686   1.856       .  S
Al677       O690   1.997       .  S
Al677       O687   2.011       .  S
Al677       O682   1.756       .  S
O678        C685   1.279       .  A
O678       Al686   1.984       .  S
O679        C688   1.281       .  A
O679       Al686   1.994       .  S
O680       Al686   1.857       .  S
O681        C688   1.256       .  A
O682       Al686   1.762       .  S
O683        C684   1.273       .  A
C684        C767   1.485       .  S
C685        C757   1.491       .  S
C688        C814   1.484       .  S
C689        O690   1.282       .  A
C689        C714   1.499       .  S
O691        C706   1.277       .  A
O691       Al699   1.979       .  S
C692        O702   1.272       .  A
C692        C717   1.480       .  S
O693       Al695   1.873       .  S
O694        C696   1.277       .  A
O694       Al695   1.984       .  S
Al695       O703   2.011       .  S
Al695       O705   1.872       .  S
Al695       O704   1.765       .  S
C696        O709   1.253       .  A
C696        C807   1.487       .  S
O697        C707   1.280       .  A
O697       Al699   1.992       .  S
O698        C711   1.270       .  A
Al699       O712   1.888       .  S
Al699       O709   1.844       .  S
Al699       O704   1.756       .  S
O700        C707   1.246       .  A
O700       Al708   1.829       .  S
O701        C710   1.250       .  A
O701       Al708   1.828       .  S
O703        C710   1.283       .  A
O704       Al708   1.761       .  S
O705        C706   1.259       .  A
C706        C724   1.494       .  S
C707        C744   1.462       .  S
C710        C737   1.500       .  S
C711        C797   1.477       .  S
C713        C714   1.402       .  A
C713        C718   1.402       .  A
C713        H720   1.083       .  S
C714        C715   1.431       .  A
C715        C716   1.403       .  A
C715       Br722   1.925       .  S
C716        C717   1.393       .  A
C716        H721   1.083       .  S
C717        C718   1.415       .  A
C723        C724   1.415       .  A
C723        C728   1.403       .  A
C723        H730   1.084       .  S
C724        C725   1.415       .  A
C725        C726   1.402       .  A
C725       Br732   1.921       .  S
C726        C727   1.404       .  A
C726        H731   1.085       .  S
C727        C728   1.401       .  A
C728       Br729   1.918       .  S
C733        H740   1.083       .  S
C734        C735   1.406       .  A
C735       Br742   1.923       .  S
C736        H741   1.083       .  S
C737        C738   1.407       .  A
C738       Br739   1.918       .  S
C743       C1576   1.386   1_455  A
C743        C748   1.390       .  A
C743        H750   1.085       .  S
C744       C1575   1.386       .  A
C745        C746   1.393       .  A
C745       Br752   1.917       .  S
C746       C1579   1.388       .  A
C746        H751   1.084       .  S
C747       C1578   1.388   1_455  A
C748       Br749   1.919       .  S
C753        C754   1.396       .  A
C753        C758   1.405       .  A
C753        H760   1.083       .  S
C754        C755   1.423   1_455  A
C755       C1588   1.395       .  A
C755      Br1594   1.913   1_565  S
C756       C1587   1.395       .  A
C756        C757   1.394       .  A
C756        H761   1.083       .  S
C757       C1590   1.428       .  A
C758       C1589   1.428   1_455  A
C758       Br759   1.924       .  S
Br762      C1587   1.913   1_545  S
C763        C764   1.410       .  A
C763       C1600   1.405   1_455  A
C763        H770   1.084       .  S
C764        C765   1.406       .  A
C765       C1598   1.397   1_455  A
C765       Br772   1.911       .  S
C766       C1597   1.397       .  A
C766        C767   1.405       .  A
C766        H771   1.078       .  S
C767        C768   1.410       .  A
C768       C1595   1.405       .  A
C768       Br769   1.918       .  S
C773        C774   1.399       .  A
C773        C778   1.397       .  A
C773        H780   1.083       .  S
C774        C775   1.432       .  A
C775        C776   1.402       .  A
C775       Br782   1.925       .  S
C776        C777   1.391       .  A
C776        H781   1.083       .  S
C777        C778   1.412       .  A
C778       Br779   1.906       .  S
C783        C784   1.407       .  A
C783        C788   1.402       .  A
C783        H790   1.086       .  S
C784        C785   1.397       .  A
C785        C786   1.401       .  A
C785       Br792   1.917       .  S
C786        C787   1.419       .  A
C786        H791   1.084       .  S
C787        C788   1.414       .  A
C788       Br789   1.921       .  S
C793       C1626   1.412       .  A
C793        C798   1.403       .  A
C793        H800   1.080       .  S
C794       C1625   1.412   1_455  A
C794        C795   1.404       .  A
C795       C1628   1.394   1_455  A
C795       Br802   1.917       .  S
C796       C1627   1.394       .  A
C796        C797   1.405       .  A
C796        H801   1.073       .  S
C797        C798   1.403       .  A
C798       Br799   1.916       .  S
C803       C1636   1.411       .  A
C803        C808   1.399       .  A
C803        H810   1.083       .  S
C804       C1635   1.411       .  A
C804        C805   1.397       .  A
C805        C806   1.398       .  A
C805       Br812   1.917       .  S
C806       C1639   1.418   1_455  A
C806        H811   1.083       .  S
C807       C1638   1.418       .  A
C807        C808   1.407       .  A
C808       Br809   1.920       .  S
C813        C814   1.400       .  A
C813        C818   1.403       .  A
C813        H820   1.084       .  S
C814        C815   1.417       .  A
C815        C816   1.404       .  A
C815       Br822   1.921       .  S
C816        C817   1.400       .  A
C816        H821   1.083       .  S
C817        C818   1.418       .  A
C818       Br819   1.921       .  S
C823       C1656   1.391       .  A
C823        C828   1.395       .  A
C823        H830   1.084       .  S
C824       C1655   1.391   1_455  A
C824        C825   1.418       .  A
C825        C826   1.398       .  A
C825       Br832   1.917       .  S
C826       C1659   1.393   1_455  A
C826        H831   1.084       .  S
C827       C1658   1.393       .  A
C827        C828   1.422       .  A
C828       Br829   1.919       .  S
O833        C848   1.281       .  A
O833       Al841   1.993       .  S
C834        O844   1.276       .  A
C834        O835   1.254       .  A
C834        C985   1.475       .  S
O835       Al837   1.860       .  S
O836        C838   1.275       .  A
O836       Al837   1.980       .  S
Al837       O845   1.992       .  S
Al837       O847   1.864       .  S
Al837       O846   1.767       .  S
C838        O851   1.252       .  A
C838       C1002   1.477       .  S
O839        C849   1.278       .  A
O839       Al841   1.998       .  S
O840        C853   1.271       .  A
O840       Al850   1.964       .  S
Al841       O854   1.867       .  S
Al841       O851   1.860       .  S
Al841       O846   1.757       .  S
O842        C849   1.247       .  A
O842       Al850   1.827       .  S
O843        C852   1.252       .  A
O843       Al850   1.856       .  S
O844       Al850   1.967       .  S
O845        C852   1.278       .  A
O846       Al850   1.764       .  S
O847        C848   1.259       .  A
C848        C995   1.499       .  S
C849       C1032   1.465       .  S
C852       C1025   1.484       .  S
C853        O854   1.253       .  A
C853       C1012   1.475       .  S
O855       C1286   1.255   1_545  A
O855       Al863   1.868       .  S
C856       O1074   1.255   1_554  A
C856        O857   1.279       .  A
C856        C992   1.472       .  S
O857      Al1067   1.969   1_554  S
O858        C860   1.239       .  A
O858       Al859   1.820       .  S
Al859      O1065   1.969       .  S
Al859       O867   1.865       .  S
Al859      O1285   1.990   1_545  S
Al859       O868   1.752       .  S
C860        O873   1.275       .  A
C860        C955   1.465       .  S
O861        C871   1.247       .  A
O861       Al863   1.858       .  S
O862        C875   1.253       .  A
O862       Al872   1.849       .  S
Al863       O876   2.012       .  S
Al863       O873   1.988       .  S
Al863       O868   1.746       .  S
O864        C871   1.275       .  A
O864       Al872   2.000       .  S
O865        C874   1.278       .  A
O865       Al872   1.983       .  S
O866       C1064   1.255       .  A
O866       Al872   1.853       .  S
O867        C874   1.255       .  A
O868       Al872   1.770       .  S
O869        C870   1.277       .  A
O869      Al1275   1.990       .  S
C870       O1271   1.255       .  A
C870        C962   1.486       .  S
C871        C972   1.480       .  S
C874        C942   1.496       .  S
C875        O876   1.289       .  A
C875        C982   1.495       .  S
O877        C892   1.251       .  A
O877       Al885   1.877       .  S
C878        O888   1.253       .  A
C878        O879   1.275       .  A
C878        C935   1.471       .  S
O879       Al881   1.966       .  S
O880        C882   1.245       .  A
O880       Al881   1.824       .  S
Al881       O889   1.859       .  S
Al881       O891   1.979       .  S
Al881       O890   1.764       .  S
C882        O895   1.283       .  A
C882       C1035   1.468       .  S
O883        C893   1.247       .  A
O883       Al885   1.848       .  S
O884        C897   1.252       .  A
O884       Al894   1.856       .  S
Al885       O898   1.997       .  S
Al885       O895   2.011       .  S
Al885       O890   1.756       .  S
O886        C893   1.279       .  A
O886       Al894   1.984       .  S
O887        C896   1.281       .  A
O887       Al894   1.994       .  S
O888       Al894   1.857       .  S
O889        C896   1.256       .  A
O890       Al894   1.762       .  S
O891        C892   1.273       .  A
C892        C975   1.485       .  S
C893        C965   1.491       .  S
C896       C1022   1.484       .  S
C897        O898   1.282       .  A
C897        C922   1.499       .  S
O899        C914   1.277       .  A
O899       Al907   1.979       .  S
C900        O910   1.272       .  A
C900       O1109   1.253       .  A
C900        C925   1.480       .  S
O901       C1108   1.253   1_554  A
O901       Al903   1.873       .  S
O902        C904   1.277       .  A
O902       Al903   1.984       .  S
Al903       O911   2.011       .  S
Al903       O913   1.872       .  S
Al903       O912   1.765       .  S
C904        O917   1.253       .  A
C904       C1015   1.487       .  S
O905        C915   1.280       .  A
O905       Al907   1.992       .  S
O906        C919   1.270       .  A
O906      Al1332   1.965   1_545  S
Al907       O920   1.888       .  S
Al907       O917   1.844       .  S
Al907       O912   1.756       .  S
O908        C915   1.246       .  A
O908       Al916   1.829       .  S
O909        C918   1.250       .  A
O909       Al916   1.828       .  S
O910      Al1124   1.959       .  S
O911        C918   1.283       .  A
O912       Al916   1.761       .  S
O913        C914   1.259       .  A
C914        C932   1.494       .  S
C915        C952   1.462       .  S
Al916      O1322   1.965       .  S
Al916      O1118   1.959   1_554  S
C918        C945   1.500       .  S
C919       O1336   1.257   1_545  A
C919       C1005   1.477       .  S
O920       C1335   1.257       .  A
C921        C922   1.402       .  A
C921        C926   1.402       .  A
C921        H928   1.083       .  S
C922        C923   1.431       .  A
C923        C924   1.403       .  A
C923       Br930   1.925       .  S
C924        C925   1.393       .  A
C924        H929   1.083       .  S
C925        C926   1.415       .  A
C926      Br1135   1.916       .  S
Br927      C1134   1.916   1_554  S
C931        C932   1.415       .  A
C931        C936   1.403       .  A
C931        H938   1.084       .  S
C932        C933   1.415       .  A
C933        C934   1.402       .  A
C933       Br940   1.921       .  S
C934        C935   1.404       .  A
C934        H939   1.085       .  S
C935        C936   1.401       .  A
C936       Br937   1.918       .  S
C941       C1358   1.419       .  A
C941       C1154   1.407       .  A
C941        H948   1.083       .  S
C942       C1357   1.419   1_545  A
C942        C943   1.406       .  A
C943       C1152   1.396       .  A
C943       Br950   1.923       .  S
C944       C1151   1.396   1_554  A
C944       C1361   1.418   1_545  A
C944        H949   1.083       .  S
C945       C1360   1.418       .  A
C945        C946   1.407   1_554  A
C946       C1149   1.407       .  A
C946       Br947   1.918       .  S
C951        C956   1.390       .  A
C951        H958   1.085       .  S
C952       C1577   1.422   1_554  A
C953       C1576   1.422   1_545  A
C953        C954   1.393       .  A
C953       Br960   1.917       .  S
C954        H959   1.084       .  S
C955       C1580   1.425   1_545  A
C956       C1579   1.425   1_554  A
C956       Br957   1.919       .  S
C961        C962   1.396       .  A
C961        C966   1.405       .  A
C961        H968   1.083       .  S
C962        C963   1.423       .  A
C964        C965   1.394       .  A
C964        H969   1.083       .  S
C966       Br967   1.924       .  S
C971        C972   1.410       .  A
C971        H978   1.084       .  S
C972        C973   1.406       .  A
C973       Br980   1.911       .  S
C974        C975   1.405       .  A
C974        H979   1.078       .  S
C975        C976   1.410       .  A
C976       Br977   1.918       .  S
C981        C982   1.399       .  A
C981        C986   1.397       .  A
C981        H988   1.083       .  S
C982        C983   1.432       .  A
C983        C984   1.402       .  A
C983       Br990   1.925       .  S
C984        C985   1.391       .  A
C984        H989   1.083       .  S
C985        C986   1.412       .  A
C986       Br987   1.906       .  S
C991        C992   1.407       .  A
C991        C996   1.402       .  A
C991        H998   1.086       .  S
C992        C993   1.397       .  A
C993        C994   1.401       .  A
C993      Br1000   1.917       .  S
C994        C995   1.419       .  A
C994        H999   1.084       .  S
C995        C996   1.414       .  A
C996       Br997   1.921       .  S
C1001      C1006   1.403       .  A
C1001      H1008   1.080       .  S
C1002      C1003   1.404       .  A
C1003     Br1010   1.917       .  S
C1004      C1005   1.405       .  A
C1004      H1009   1.073       .  S
C1005      C1006   1.403       .  A
C1006     Br1007   1.916       .  S
C1011      C1016   1.399   1_455  A
C1011      H1018   1.083   1_455  S
C1012      C1013   1.397       .  A
C1013      C1014   1.398       .  A
C1013     Br1020   1.917       .  S
C1014      H1019   1.083       .  S
C1015      C1016   1.407       .  A
C1016     Br1017   1.920       .  S
C1021      C1022   1.400       .  A
C1021      C1026   1.403       .  A
C1021      H1028   1.084       .  S
C1022      C1023   1.417       .  A
C1023      C1024   1.404       .  A
C1023     Br1030   1.921       .  S
C1024      C1025   1.400       .  A
C1024      H1029   1.083       .  S
C1025      C1026   1.418       .  A
C1026     Br1027   1.921       .  S
C1031      C1036   1.395       .  A
C1031      H1038   1.084       .  S
C1032      C1033   1.418       .  A
C1033      C1034   1.398       .  A
C1033     Br1040   1.917       .  S
C1034      H1039   1.084       .  S
C1035      C1036   1.422       .  A
C1036     Br1037   1.919       .  S
O1041      C1056   1.281       .  A
O1041     Al1049   1.993       .  S
C1042      O1052   1.276       .  A
C1042      O1043   1.254       .  A
C1042      C1193   1.475       .  S
O1043     Al1045   1.860       .  S
O1044      C1046   1.275       .  A
O1044     Al1045   1.980       .  S
Al1045     O1053   1.992       .  S
Al1045     O1055   1.864       .  S
Al1045     O1054   1.767       .  S
C1046      O1059   1.252       .  A
C1046      C1210   1.477       .  S
O1047      C1057   1.278       .  A
O1047     Al1049   1.998       .  S
O1048      C1061   1.271       .  A
O1048     Al1058   1.964       .  S
Al1049     O1062   1.867       .  S
Al1049     O1059   1.860       .  S
Al1049     O1054   1.757       .  S
O1050      C1057   1.247       .  A
O1050     Al1058   1.827       .  S
O1051      C1060   1.252       .  A
O1051     Al1058   1.856       .  S
O1052     Al1058   1.967       .  S
O1053      C1060   1.278       .  A
O1054     Al1058   1.764       .  S
O1055      C1056   1.259       .  A
C1056      C1203   1.499       .  S
C1057      C1240   1.465       .  S
C1060      C1233   1.484       .  S
C1061      O1062   1.253       .  A
C1061      C1220   1.475       .  S
O1063      C1494   1.255   1_545  A
O1063     Al1071   1.868       .  S
C1064      O1065   1.279       .  A
C1064      C1200   1.472       .  S
O1066      C1068   1.239       .  A
O1066     Al1067   1.820       .  S
Al1067     O1075   1.865       .  S
Al1067     O1493   1.990   1_545  S
Al1067     O1076   1.752       .  S
C1068      O1081   1.275       .  A
C1068      C1163   1.465       .  S
O1069      C1079   1.247       .  A
O1069     Al1071   1.858       .  S
O1070      C1083   1.253       .  A
O1070     Al1080   1.849       .  S
Al1071     O1084   2.012       .  S
Al1071     O1081   1.988       .  S
Al1071     O1076   1.746       .  S
O1072      C1079   1.275       .  A
O1072     Al1080   2.000       .  S
O1073      C1082   1.278       .  A
O1073     Al1080   1.983       .  S
O1074     Al1080   1.853       .  S
O1075      C1082   1.255       .  A
O1076     Al1080   1.770       .  S
O1077      C1078   1.277       .  A
O1077     Al1483   1.990       .  S
C1078      O1479   1.255       .  A
C1078      C1170   1.486       .  S
C1079      C1180   1.480       .  S
C1082      C1150   1.496       .  S
C1083      O1084   1.289       .  A
C1083      C1190   1.495       .  S
O1085      C1100   1.251       .  A
O1085     Al1093   1.877       .  S
C1086      O1096   1.253       .  A
C1086      O1087   1.275       .  A
C1086      C1143   1.471       .  S
O1087     Al1089   1.966       .  S
O1088      C1090   1.245       .  A
O1088     Al1089   1.824       .  S
Al1089     O1097   1.859       .  S
Al1089     O1099   1.979       .  S
Al1089     O1098   1.764       .  S
C1090      O1103   1.283       .  A
C1090      C1243   1.468       .  S
O1091      C1101   1.247       .  A
O1091     Al1093   1.848       .  S
O1092      C1105   1.252       .  A
O1092     Al1102   1.856       .  S
Al1093     O1106   1.997       .  S
Al1093     O1103   2.011       .  S
Al1093     O1098   1.756       .  S
O1094      C1101   1.279       .  A
O1094     Al1102   1.984       .  S
O1095      C1104   1.281       .  A
O1095     Al1102   1.994       .  S
O1096     Al1102   1.857       .  S
O1097      C1104   1.256       .  A
O1098     Al1102   1.762       .  S
O1099      C1100   1.273       .  A
C1100      C1183   1.485       .  S
C1101      C1173   1.491       .  S
C1104      C1230   1.484       .  S
C1105      O1106   1.282       .  A
C1105      C1130   1.499       .  S
O1107      C1122   1.277       .  A
O1107     Al1115   1.979       .  S
C1108      O1118   1.272       .  A
C1108      C1133   1.480       .  S
O1109     Al1111   1.873       .  S
O1110      C1112   1.277       .  A
O1110     Al1111   1.984       .  S
Al1111     O1119   2.011       .  S
Al1111     O1121   1.872       .  S
Al1111     O1120   1.765       .  S
C1112      O1125   1.253       .  A
C1112      C1223   1.487       .  S
O1113      C1123   1.280       .  A
O1113     Al1115   1.992       .  S
O1114      C1127   1.270       .  A
O1114     Al1540   1.965   1_545  S
Al1115     O1128   1.888       .  S
Al1115     O1125   1.844       .  S
Al1115     O1120   1.756       .  S
O1116      C1123   1.246       .  A
O1116     Al1124   1.829       .  S
O1117      C1126   1.250       .  A
O1117     Al1124   1.828       .  S
O1119      C1126   1.283       .  A
O1120     Al1124   1.761       .  S
O1121      C1122   1.259       .  A
C1122      C1140   1.494       .  S
C1123      C1160   1.462       .  S
Al1124     O1530   1.965       .  S
C1126      C1153   1.500       .  S
C1127      O1544   1.257   1_545  A
C1127      C1213   1.477       .  S
O1128      C1543   1.257       .  A
C1129      C1130   1.402       .  A
C1129      C1134   1.402       .  A
C1129      H1136   1.083       .  S
C1130      C1131   1.431       .  A
C1131      C1132   1.403       .  A
C1131     Br1138   1.925       .  S
C1132      C1133   1.393       .  A
C1132      H1137   1.083       .  S
C1133      C1134   1.415       .  A
C1139      C1140   1.415       .  A
C1139      C1144   1.403       .  A
C1139      H1146   1.084       .  S
C1140      C1141   1.415       .  A
C1141      C1142   1.402       .  A
C1141     Br1148   1.921       .  S
C1142      C1143   1.404       .  A
C1142      H1147   1.085       .  S
C1143      C1144   1.401       .  A
C1144     Br1145   1.918       .  S
C1149      C1566   1.419       .  A
C1149      H1156   1.083       .  S
C1150      C1565   1.419   1_545  A
C1150      C1151   1.406       .  A
C1151     Br1158   1.923       .  S
C1152      C1569   1.418   1_545  A
C1152      H1157   1.083       .  S
C1153      C1568   1.418       .  A
C1153      C1154   1.407       .  A
C1154     Br1155   1.918       .  S
C1159      C1164   1.390       .  A
C1159      H1166   1.085       .  S
C1160      C1369   1.422       .  A
C1161      C1368   1.422   1_546  A
C1161      C1162   1.393       .  A
C1161     Br1168   1.917       .  S
C1162      H1167   1.084       .  S
C1163      C1372   1.425   1_546  A
C1164      C1371   1.425       .  A
C1164     Br1165   1.919       .  S
C1169      C1170   1.396       .  A
C1169      C1174   1.405       .  A
C1169      H1176   1.083       .  S
C1170      C1171   1.423       .  A
C1172      C1173   1.394       .  A
C1172      H1177   1.083       .  S
C1174     Br1175   1.924       .  S
C1179      C1180   1.410       .  A
C1179      H1186   1.084       .  S
C1180      C1181   1.406       .  A
C1181     Br1188   1.911       .  S
C1182      C1183   1.405       .  A
C1182      H1187   1.078       .  S
C1183      C1184   1.410       .  A
C1184     Br1185   1.918       .  S
C1189      C1190   1.399       .  A
C1189      C1194   1.397       .  A
C1189      H1196   1.083       .  S
C1190      C1191   1.432       .  A
C1191      C1192   1.402       .  A
C1191     Br1198   1.925       .  S
C1192      C1193   1.391       .  A
C1192      H1197   1.083       .  S
C1193      C1194   1.412       .  A
C1194     Br1195   1.906       .  S
C1199      C1200   1.407       .  A
C1199      C1204   1.402       .  A
C1199      H1206   1.086       .  S
C1200      C1201   1.397       .  A
C1201      C1202   1.401       .  A
C1201     Br1208   1.917       .  S
C1202      C1203   1.419       .  A
C1202      H1207   1.084       .  S
C1203      C1204   1.414       .  A
C1204     Br1205   1.921       .  S
C1209      C1214   1.403       .  A
C1209      H1216   1.080       .  S
C1210      C1211   1.404       .  A
C1211     Br1218   1.917       .  S
C1212      C1213   1.405       .  A
C1212      H1217   1.073       .  S
C1213      C1214   1.403       .  A
C1214     Br1215   1.916       .  S
C1219      C1224   1.399   1_455  A
C1219      H1226   1.083   1_455  S
C1220      C1221   1.397       .  A
C1221      C1222   1.398       .  A
C1221     Br1228   1.917       .  S
C1222      H1227   1.083       .  S
C1223      C1224   1.407       .  A
C1224     Br1225   1.920       .  S
C1229      C1230   1.400       .  A
C1229      C1234   1.403       .  A
C1229      H1236   1.084       .  S
C1230      C1231   1.417       .  A
C1231      C1232   1.404       .  A
C1231     Br1238   1.921       .  S
C1232      C1233   1.400       .  A
C1232      H1237   1.083       .  S
C1233      C1234   1.418       .  A
C1234     Br1235   1.921       .  S
C1239      C1244   1.395       .  A
C1239      H1246   1.084       .  S
C1240      C1241   1.418       .  A
C1241      C1242   1.398       .  A
C1241     Br1248   1.917       .  S
C1242      H1247   1.084       .  S
C1243      C1244   1.422       .  A
C1244     Br1245   1.919       .  S
O1249      C1264   1.281       .  A
O1249     Al1257   1.993       .  S
C1250      O1260   1.276       .  A
C1250      O1251   1.254       .  A
C1250      C1401   1.475       .  S
O1251     Al1253   1.860       .  S
O1252      C1254   1.275       .  A
O1252     Al1253   1.980       .  S
Al1253     O1261   1.992       .  S
Al1253     O1263   1.864       .  S
Al1253     O1262   1.767       .  S
C1254      O1267   1.252       .  A
C1254      C1418   1.477       .  S
O1255      C1265   1.278       .  A
O1255     Al1257   1.998       .  S
O1256      C1269   1.271       .  A
O1256     Al1266   1.964       .  S
Al1257     O1270   1.867       .  S
Al1257     O1267   1.860       .  S
Al1257     O1262   1.757       .  S
O1258      C1265   1.247       .  A
O1258     Al1266   1.827       .  S
O1259      C1268   1.252       .  A
O1259     Al1266   1.856       .  S
O1260     Al1266   1.967       .  S
O1261      C1268   1.278       .  A
O1262     Al1266   1.764       .  S
O1263      C1264   1.259       .  A
C1264      C1411   1.499       .  S
C1265      C1448   1.465       .  S
C1268      C1441   1.484       .  S
C1269      O1270   1.253       .  A
C1269      C1428   1.475       .  S
O1271     Al1279   1.868       .  S
C1272      O1490   1.255   1_554  A
C1272      O1273   1.279       .  A
C1272      C1408   1.472       .  S
O1273     Al1483   1.969   1_554  S
O1274      C1276   1.239       .  A
O1274     Al1275   1.820       .  S
Al1275     O1481   1.969       .  S
Al1275     O1283   1.865       .  S
Al1275     O1284   1.752       .  S
C1276      O1289   1.275       .  A
C1276      C1371   1.465       .  S
O1277      C1287   1.247       .  A
O1277     Al1279   1.858       .  S
O1278      C1291   1.253       .  A
O1278     Al1288   1.849       .  S
Al1279     O1292   2.012       .  S
Al1279     O1289   1.988       .  S
Al1279     O1284   1.746       .  S
O1280      C1287   1.275       .  A
O1280     Al1288   2.000       .  S
O1281      C1290   1.278       .  A
O1281     Al1288   1.983       .  S
O1282      C1480   1.255       .  A
O1282     Al1288   1.853       .  S
O1283      C1290   1.255       .  A
O1284     Al1288   1.770       .  S
O1285      C1286   1.277       .  A
C1286      C1378   1.486       .  S
C1287      C1388   1.480       .  S
C1290      C1358   1.496       .  S
C1291      O1292   1.289       .  A
C1291      C1398   1.495       .  S
O1293      C1308   1.251       .  A
O1293     Al1301   1.877       .  S
C1294      O1304   1.253       .  A
C1294      O1295   1.275       .  A
C1294      C1351   1.471       .  S
O1295     Al1297   1.966       .  S
O1296      C1298   1.245       .  A
O1296     Al1297   1.824       .  S
Al1297     O1305   1.859       .  S
Al1297     O1307   1.979       .  S
Al1297     O1306   1.764       .  S
C1298      O1311   1.283       .  A
C1298      C1451   1.468       .  S
O1299      C1309   1.247       .  A
O1299     Al1301   1.848       .  S
O1300      C1313   1.252       .  A
O1300     Al1310   1.856       .  S
Al1301     O1314   1.997       .  S
Al1301     O1311   2.011       .  S
Al1301     O1306   1.756       .  S
O1302      C1309   1.279       .  A
O1302     Al1310   1.984       .  S
O1303      C1312   1.281       .  A
O1303     Al1310   1.994       .  S
O1304     Al1310   1.857       .  S
O1305      C1312   1.256       .  A
O1306     Al1310   1.762       .  S
O1307      C1308   1.273       .  A
C1308      C1391   1.485       .  S
C1309      C1381   1.491       .  S
C1312      C1438   1.484       .  S
C1313      O1314   1.282       .  A
C1313      C1338   1.499       .  S
O1315      C1330   1.277       .  A
O1315     Al1323   1.979       .  S
C1316      O1326   1.272       .  A
C1316      O1525   1.253       .  A
C1316      C1341   1.480       .  S
O1317      C1524   1.253   1_554  A
O1317     Al1319   1.873       .  S
O1318      C1320   1.277       .  A
O1318     Al1319   1.984       .  S
Al1319     O1327   2.011       .  S
Al1319     O1329   1.872       .  S
Al1319     O1328   1.765       .  S
C1320      O1333   1.253       .  A
C1320      C1431   1.487       .  S
O1321      C1331   1.280       .  A
O1321     Al1323   1.992       .  S
O1322      C1335   1.270       .  A
Al1323     O1336   1.888       .  S
Al1323     O1333   1.844       .  S
Al1323     O1328   1.756       .  S
O1324      C1331   1.246       .  A
O1324     Al1332   1.829       .  S
O1325      C1334   1.250       .  A
O1325     Al1332   1.828       .  S
O1326     Al1540   1.959       .  S
O1327      C1334   1.283       .  A
O1328     Al1332   1.761       .  S
O1329      C1330   1.259       .  A
C1330      C1348   1.494       .  S
C1331      C1368   1.462       .  S
Al1332     O1534   1.959   1_554  S
C1334      C1361   1.500       .  S
C1335      C1421   1.477       .  S
C1337      C1338   1.402       .  A
C1337      C1342   1.402       .  A
C1337      H1344   1.083       .  S
C1338      C1339   1.431       .  A
C1339      C1340   1.403       .  A
C1339     Br1346   1.925       .  S
C1340      C1341   1.393       .  A
C1340      H1345   1.083       .  S
C1341      C1342   1.415       .  A
C1342     Br1551   1.916       .  S
Br1343     C1550   1.916   1_554  S
C1347      C1348   1.415       .  A
C1347      C1352   1.403       .  A
C1347      H1354   1.084       .  S
C1348      C1349   1.415       .  A
C1349      C1350   1.402       .  A
C1349     Br1356   1.921       .  S
C1350      C1351   1.404       .  A
C1350      H1355   1.085       .  S
C1351      C1352   1.401       .  A
C1352     Br1353   1.918       .  S
C1357      C1570   1.407       .  A
C1357      H1364   1.083       .  S
C1358      C1359   1.406       .  A
C1359      C1568   1.396       .  A
C1359     Br1366   1.923       .  S
C1360      C1567   1.396   1_554  A
C1360      H1365   1.083       .  S
C1361      C1362   1.407   1_554  A
C1362      C1565   1.407       .  A
C1362     Br1363   1.918       .  S
C1367      C1372   1.390       .  A
C1367      H1374   1.085       .  S
C1369      C1370   1.393       .  A
C1369     Br1376   1.917       .  S
C1370      H1375   1.084       .  S
C1372     Br1373   1.919       .  S
C1377      C1378   1.396       .  A
C1377      C1382   1.405       .  A
C1377      H1384   1.083       .  S
C1378      C1379   1.423       .  A
C1380      C1381   1.394       .  A
C1380      H1385   1.083       .  S
C1382     Br1383   1.924       .  S
C1387      C1388   1.410       .  A
C1387      H1394   1.084       .  S
C1388      C1389   1.406       .  A
C1389     Br1396   1.911       .  S
C1390      C1391   1.405       .  A
C1390      H1395   1.078       .  S
C1391      C1392   1.410       .  A
C1392     Br1393   1.918       .  S
C1397      C1398   1.399       .  A
C1397      C1402   1.397       .  A
C1397      H1404   1.083       .  S
C1398      C1399   1.432       .  A
C1399      C1400   1.402       .  A
C1399     Br1406   1.925       .  S
C1400      C1401   1.391       .  A
C1400      H1405   1.083       .  S
C1401      C1402   1.412       .  A
C1402     Br1403   1.906       .  S
C1407      C1408   1.407       .  A
C1407      C1412   1.402       .  A
C1407      H1414   1.086       .  S
C1408      C1409   1.397       .  A
C1409      C1410   1.401       .  A
C1409     Br1416   1.917       .  S
C1410      C1411   1.419       .  A
C1410      H1415   1.084       .  S
C1411      C1412   1.414       .  A
C1412     Br1413   1.921       .  S
C1417      C1422   1.403       .  A
C1417      H1424   1.080       .  S
C1418      C1419   1.404       .  A
C1419     Br1426   1.917       .  S
C1420      C1421   1.405       .  A
C1420      H1425   1.073       .  S
C1421      C1422   1.403       .  A
C1422     Br1423   1.916       .  S
C1427      C1432   1.399   1_455  A
C1427      H1434   1.083   1_455  S
C1428      C1429   1.397       .  A
C1429      C1430   1.398       .  A
C1429     Br1436   1.917       .  S
C1430      H1435   1.083       .  S
C1431      C1432   1.407       .  A
C1432     Br1433   1.920       .  S
C1437      C1438   1.400       .  A
C1437      C1442   1.403       .  A
C1437      H1444   1.084       .  S
C1438      C1439   1.417       .  A
C1439      C1440   1.404       .  A
C1439     Br1446   1.921       .  S
C1440      C1441   1.400       .  A
C1440      H1445   1.083       .  S
C1441      C1442   1.418       .  A
C1442     Br1443   1.921       .  S
C1447      C1452   1.395       .  A
C1447      H1454   1.084       .  S
C1448      C1449   1.418       .  A
C1449      C1450   1.398       .  A
C1449     Br1456   1.917       .  S
C1450      H1455   1.084       .  S
C1451      C1452   1.422       .  A
C1452     Br1453   1.919       .  S
O1457      C1472   1.281       .  A
O1457     Al1465   1.993       .  S
C1458      O1468   1.276       .  A
C1458      O1459   1.254       .  A
C1458      C1609   1.475       .  S
O1459     Al1461   1.860       .  S
O1460      C1462   1.275       .  A
O1460     Al1461   1.980       .  S
Al1461     O1469   1.992       .  S
Al1461     O1471   1.864       .  S
Al1461     O1470   1.767       .  S
C1462      O1475   1.252       .  A
C1462      C1626   1.477       .  S
O1463      C1473   1.278       .  A
O1463     Al1465   1.998       .  S
O1464      C1477   1.271       .  A
O1464     Al1474   1.964       .  S
Al1465     O1478   1.867       .  S
Al1465     O1475   1.860       .  S
Al1465     O1470   1.757       .  S
O1466      C1473   1.247       .  A
O1466     Al1474   1.827       .  S
O1467      C1476   1.252       .  A
O1467     Al1474   1.856       .  S
O1468     Al1474   1.967       .  S
O1469      C1476   1.278       .  A
O1470     Al1474   1.764       .  S
O1471      C1472   1.259       .  A
C1472      C1619   1.499       .  S
C1473      C1656   1.465       .  S
C1476      C1649   1.484       .  S
C1477      O1478   1.253       .  A
C1477      C1636   1.475       .  S
O1479     Al1487   1.868       .  S
C1480      O1481   1.279       .  A
C1480      C1616   1.472       .  S
O1482      C1484   1.239       .  A
O1482     Al1483   1.820       .  S
Al1483     O1491   1.865       .  S
Al1483     O1492   1.752       .  S
C1484      O1497   1.275       .  A
C1484      C1579   1.465       .  S
O1485      C1495   1.247       .  A
O1485     Al1487   1.858       .  S
O1486      C1499   1.253       .  A
O1486     Al1496   1.849       .  S
Al1487     O1500   2.012       .  S
Al1487     O1497   1.988       .  S
Al1487     O1492   1.746       .  S
O1488      C1495   1.275       .  A
O1488     Al1496   2.000       .  S
O1489      C1498   1.278       .  A
O1489     Al1496   1.983       .  S
O1490     Al1496   1.853       .  S
O1491      C1498   1.255       .  A
O1492     Al1496   1.770       .  S
O1493      C1494   1.277       .  A
C1494      C1586   1.486       .  S
C1495      C1596   1.480       .  S
C1498      C1566   1.496       .  S
C1499      O1500   1.289       .  A
C1499      C1606   1.495       .  S
O1501      C1516   1.251       .  A
O1501     Al1509   1.877       .  S
C1502      O1512   1.253       .  A
C1502      O1503   1.275       .  A
C1502      C1559   1.471       .  S
O1503     Al1505   1.966       .  S
O1504      C1506   1.245       .  A
O1504     Al1505   1.824       .  S
Al1505     O1513   1.859       .  S
Al1505     O1515   1.979       .  S
Al1505     O1514   1.764       .  S
C1506      O1519   1.283       .  A
C1506      C1659   1.468       .  S
O1507      C1517   1.247       .  A
O1507     Al1509   1.848       .  S
O1508      C1521   1.252       .  A
O1508     Al1518   1.856       .  S
Al1509     O1522   1.997       .  S
Al1509     O1519   2.011       .  S
Al1509     O1514   1.756       .  S
O1510      C1517   1.279       .  A
O1510     Al1518   1.984       .  S
O1511      C1520   1.281       .  A
O1511     Al1518   1.994       .  S
O1512     Al1518   1.857       .  S
O1513      C1520   1.256       .  A
O1514     Al1518   1.762       .  S
O1515      C1516   1.273       .  A
C1516      C1599   1.485       .  S
C1517      C1589   1.491       .  S
C1520      C1646   1.484       .  S
C1521      O1522   1.282       .  A
C1521      C1546   1.499       .  S
O1523      C1538   1.277       .  A
O1523     Al1531   1.979       .  S
C1524      O1534   1.272       .  A
C1524      C1549   1.480       .  S
O1525     Al1527   1.873       .  S
O1526      C1528   1.277       .  A
O1526     Al1527   1.984       .  S
Al1527     O1535   2.011       .  S
Al1527     O1537   1.872       .  S
Al1527     O1536   1.765       .  S
C1528      O1541   1.253       .  A
C1528      C1639   1.487       .  S
O1529      C1539   1.280       .  A
O1529     Al1531   1.992       .  S
O1530      C1543   1.270       .  A
Al1531     O1544   1.888       .  S
Al1531     O1541   1.844       .  S
Al1531     O1536   1.756       .  S
O1532      C1539   1.246       .  A
O1532     Al1540   1.829       .  S
O1533      C1542   1.250       .  A
O1533     Al1540   1.828       .  S
O1535      C1542   1.283       .  A
O1536     Al1540   1.761       .  S
O1537      C1538   1.259       .  A
C1538      C1556   1.494       .  S
C1539      C1576   1.462       .  S
C1542      C1569   1.500       .  S
C1543      C1629   1.477       .  S
C1545      C1546   1.402       .  A
C1545      C1550   1.402       .  A
C1545      H1552   1.083       .  S
C1546      C1547   1.431       .  A
C1547      C1548   1.403       .  A
C1547     Br1554   1.925       .  S
C1548      C1549   1.393       .  A
C1548      H1553   1.083       .  S
C1549      C1550   1.415       .  A
C1555      C1556   1.415       .  A
C1555      C1560   1.403       .  A
C1555      H1562   1.084       .  S
C1556      C1557   1.415       .  A
C1557      C1558   1.402       .  A
C1557     Br1564   1.921       .  S
C1558      C1559   1.404       .  A
C1558      H1563   1.085       .  S
C1559      C1560   1.401       .  A
C1560     Br1561   1.918       .  S
C1565      H1572   1.083       .  S
C1566      C1567   1.406       .  A
C1567     Br1574   1.923       .  S
C1568      H1573   1.083       .  S
C1569      C1570   1.407       .  A
C1570     Br1571   1.918       .  S
C1575      C1580   1.390       .  A
C1575      H1582   1.085       .  S
C1577      C1578   1.393       .  A
C1577     Br1584   1.917       .  S
C1578      H1583   1.084       .  S
C1580     Br1581   1.919       .  S
C1585      C1586   1.396       .  A
C1585      C1590   1.405       .  A
C1585      H1592   1.083       .  S
C1586      C1587   1.423       .  A
C1588      C1589   1.394       .  A
C1588      H1593   1.083       .  S
C1590     Br1591   1.924       .  S
C1595      C1596   1.410       .  A
C1595      H1602   1.084       .  S
C1596      C1597   1.406       .  A
C1597     Br1604   1.911       .  S
C1598      C1599   1.405       .  A
C1598      H1603   1.078       .  S
C1599      C1600   1.410       .  A
C1600     Br1601   1.918       .  S
C1605      C1606   1.399       .  A
C1605      C1610   1.397       .  A
C1605      H1612   1.083       .  S
C1606      C1607   1.432       .  A
C1607      C1608   1.402       .  A
C1607     Br1614   1.925       .  S
C1608      C1609   1.391       .  A
C1608      H1613   1.083       .  S
C1609      C1610   1.412       .  A
C1610     Br1611   1.906       .  S
C1615      C1616   1.407       .  A
C1615      C1620   1.402       .  A
C1615      H1622   1.086       .  S
C1616      C1617   1.397       .  A
C1617      C1618   1.401       .  A
C1617     Br1624   1.917       .  S
C1618      C1619   1.419       .  A
C1618      H1623   1.084       .  S
C1619      C1620   1.414       .  A
C1620     Br1621   1.921       .  S
C1625      C1630   1.403       .  A
C1625      H1632   1.080       .  S
C1626      C1627   1.404       .  A
C1627     Br1634   1.917       .  S
C1628      C1629   1.405       .  A
C1628      H1633   1.073       .  S
C1629      C1630   1.403       .  A
C1630     Br1631   1.916       .  S
C1635      C1640   1.399   1_455  A
C1635      H1642   1.083   1_455  S
C1636      C1637   1.397       .  A
C1637      C1638   1.398       .  A
C1637     Br1644   1.917       .  S
C1638      H1643   1.083       .  S
C1639      C1640   1.407       .  A
C1640     Br1641   1.920       .  S
C1645      C1646   1.400       .  A
C1645      C1650   1.403       .  A
C1645      H1652   1.084       .  S
C1646      C1647   1.417       .  A
C1647      C1648   1.404       .  A
C1647     Br1654   1.921       .  S
C1648      C1649   1.400       .  A
C1648      H1653   1.083       .  S
C1649      C1650   1.418       .  A
C1650     Br1651   1.921       .  S
C1655      C1660   1.395       .  A
C1655      H1662   1.084       .  S
C1656      C1657   1.418       .  A
C1657      C1658   1.398       .  A
C1657     Br1664   1.917       .  S
C1658      H1663   1.084       .  S
C1659      C1660   1.422       .  A
C1660     Br1661   1.919       .  S
