geometry optimzed in LAMMPS
_audit_creation_date              2020-12-01 
_audit_creation_method            'lammps2cif' 
_symmetry_space_group_name_H-M    'P1' 
_symmetry_Int_Tables_number       1 
_symmetry_cell_setting            triclinic 
loop_ 
_symmetry_equiv_pos_as_xyz 
  x,y,z 
_cell_length_a                    38.63303774 
_cell_length_b                    34.86209921003263 
_cell_length_c                    42.51802916097579 
_cell_angle_alpha                 89.99964018664875 
_cell_angle_beta                  90.00014565822852 
_cell_angle_gamma                 90.00007839483982 
loop_ 
_atom_site_label 
_atom_site_type_symbol 
_atom_site_fract_x 
_atom_site_fract_y 
_atom_site_fract_z 
_atom_site_charge 
O1          O  0.42331677  0.08088633  0.48946516    -0.84000
C2          C  0.04377136  0.07253279  0.41583807     0.95400
O3          O  0.01729160  0.05182125  0.41042548    -0.73100
O4          O  0.50688153  0.02416346  0.46584160    -0.76700
Al5        Al  0.47661321  0.04651098  0.43775897     1.49000
C6          C  0.49744236  0.02027584  0.49382863     0.90700
O7          O  0.51193905  0.11587969  0.50797638    -0.82900
O8          O  0.45597387  0.15916523  0.44006473    -0.76400
Al9        Al  0.46839425  0.09846865  0.49619772     1.90100
O10         O  0.01823979  0.15698216  0.46925827    -0.75500
O11         O  0.47350714  0.11546057  0.39366386    -0.75400
O12         O  0.03940124  0.10629693  0.42580638    -0.81000
O13         O  0.44444271  0.06464149  0.40845360    -0.79200
O14         O  0.48030716  0.09219601  0.45600896    -1.15400
O15         O  0.43746722  0.02960403  0.46248910    -0.74600
C16         C  0.41942954  0.04579260  0.48349464     0.96200
C17         C  0.02356321  0.14696412  0.49764161     0.92600
Al18       Al  0.49592706  0.13132861  0.43361278     1.55600
O19         O  0.48279343  0.04738913  0.50870068    -0.79200
C20         C  0.44816377  0.09231832  0.38998206     0.96700
C21         C  0.44578627  0.17079643  0.46644531     0.91600
O22         O  0.45125921  0.15132380  0.49122190    -0.84500
O23         O  0.45004463  0.08098340  0.26254669    -0.84000
C24         C  0.32960446  0.07261513  0.33619233     0.95400
O25         O  0.35608092  0.05189627  0.34159499    -0.73100
O26         O  0.36646291  0.02427549  0.28616625    -0.76700
Al27       Al  0.39674756  0.04658740  0.31425037     1.49000
C28         C  0.37591151  0.02038342  0.25818393     0.90700
O29         O  0.36142018  0.11598115  0.24406777    -0.82900
O30         O  0.41741815  0.15923977  0.31197149    -0.76400
Al31       Al  0.40496676  0.09856904  0.25582776     1.90100
O32         O  0.35513862  0.15708156  0.28279050    -0.75500
O33         O  0.39989078  0.11550911  0.35836972    -0.75400
O34         O  0.33397945  0.10638480  0.32623735    -0.81000
O35         O  0.42892707  0.06467956  0.34355625    -0.79200
O36         O  0.39306455  0.09228314  0.29601825    -1.15400
O37         O  0.43588644  0.02968922  0.28950838    -0.74600
C38         C  0.45393027  0.04588731  0.26851049     0.96200
C39         C  0.34980411  0.14706713  0.25440635     0.92600
Al40       Al  0.37745938  0.13140851  0.31842823     1.55600
O41         O  0.39056545  0.04749452  0.24331355    -0.79200
C42         C  0.42521819  0.09234062  0.36204299     0.96700
C43         C  0.42759196  0.17088289  0.28558863     0.91600
O44         O  0.42210367  0.15142147  0.26080971    -0.84500
O45         O  0.29711325  0.35230288  0.01083084    -0.84000
C46         C  0.20461644  0.43109378  0.08623306     0.95400
O47         O  0.20896125  0.39733875  0.07623089    -0.73100
O48         O  0.23013055  0.34664215  0.03279177    -0.76700
Al49       Al  0.25242281  0.37228580  0.06843136     1.49000
C50         C  0.22481699  0.35667320  0.00441443     0.90700
O51         O  0.26556211  0.45625058  0.99338018    -0.82900
O52         O  0.31093576  0.47400825  0.03956348    -0.76400
Al53       Al  0.27997140  0.40516448  0.00585781     1.90100
O54         O  0.24152003  0.47948566  0.03626081    -0.75500
O55         O  0.30396203  0.43888938  0.09357437    -0.75400
O56         O  0.23111470  0.45177619  0.09165930    -0.81000
O57         O  0.27481110  0.38813424  0.10837733    -0.79200
O58         O  0.26806583  0.41142123  0.04604446    -1.15400
O59         O  0.29236967  0.34443849  0.06198667    -0.74600
C60         C  0.30257987  0.33282223  0.03560822     0.96200
C61         C  0.25092976  0.48336652  0.00826593     0.92600
Al62       Al  0.27179063  0.45708911  0.06431005     1.55600
O63         O  0.23642551  0.38776860  0.99409388    -0.79200
C64         C  0.30019357  0.41121912  0.11204336     0.96700
C65         C  0.32895938  0.45783187  0.01853868     0.91600
O66         O  0.32505817  0.42274139  0.01256199    -0.84500
O67         O  0.32618308  0.35209274  0.24118844    -0.84000
C68         C  0.41870013  0.43088437  0.16579192     0.95400
O69         O  0.41433669  0.39712214  0.17577048    -0.73100
O70         O  0.39315459  0.34642085  0.21921239    -0.76700
Al71       Al  0.37085320  0.37209484  0.18357685     1.49000
C72         C  0.39847658  0.35643815  0.24759538     0.90700
O73         O  0.35773887  0.45601856  0.25867579    -0.82900
O74         O  0.31242449  0.47382858  0.21249191    -0.76400
Al75       Al  0.34332898  0.40494371  0.24616807     1.90100
O76         O  0.38185228  0.47923079  0.21582381    -0.75500
O77         O  0.31938336  0.43881293  0.15847290    -0.75400
O78         O  0.39221538  0.45159243  0.16039027    -0.81000
O79         O  0.34844435  0.38800478  0.14364028    -0.79200
O80         O  0.35524239  0.41122229  0.20598351    -1.15400
O81         O  0.33088975  0.34425975  0.19002880    -0.74600
C82         C  0.32069932  0.33262648  0.21641019     0.96200
C83         C  0.37240080  0.48312516  0.24380528     0.92600
Al84       Al  0.35156119  0.45691537  0.18775018     1.55600
O85         O  0.38686846  0.38752863  0.25792936    -0.79200
C86         C  0.32311330  0.41116771  0.13997919     0.96700
C87         C  0.29436496  0.45762986  0.23347730     0.91600
O88         O  0.29825141  0.42253466  0.23944502    -0.84500
O89         O  0.20018763  0.08117142  0.76252316    -0.84000
C90         C  0.07971282  0.07278360  0.83616353     0.95400
O91         O  0.10619705  0.05207300  0.84156079    -0.73100
O92         O  0.11662310  0.02443576  0.78613973    -0.76700
Al93       Al  0.14688177  0.04678016  0.81422857     1.49000
C94         C  0.12605893  0.02055375  0.75815197     0.90700
O95         O  0.11156619  0.11615240  0.74402770    -0.82900
O96         O  0.16750073  0.15943137  0.81195415    -0.76400
Al97       Al  0.15510727  0.09874938  0.75580041     1.90100
O98         O  0.10525329  0.15724531  0.78275065    -0.75500
O99         O  0.14992489  0.11570288  0.85833765    -0.75400
O100        O  0.08407366  0.10654386  0.82617819    -0.81000
O101        O  0.17903392  0.06491363  0.84354365    -0.79200
O102        O  0.14318471  0.09246540  0.79598690    -1.15400
O103        O  0.18603640  0.02988942  0.78949920    -0.74600
C104        C  0.20407601  0.04607791  0.76849347     0.96200
C105        C  0.09993430  0.14722725  0.75437005     0.92600
Al106      Al  0.12754571  0.13158583  0.81838768     1.55600
O107        O  0.14071220  0.04767006  0.74328387    -0.79200
C108        C  0.17526523  0.09256501  0.86203168     0.96700
C109        C  0.17770295  0.17106932  0.78557749     0.91600
O110        O  0.17223766  0.15160431  0.76079491    -0.84500
O111        O  0.17326008  0.08122490  0.98951688    -0.84000
C112        C  0.29371760  0.07282943  0.91585262     0.95400
O113        O  0.26723426  0.05211309  0.91046328    -0.73100
O114        O  0.25682845  0.02449732  0.96589150    -0.76700
Al115      Al  0.22655753  0.04682213  0.93780489     1.49000
C116        C  0.24739244  0.02061550  0.99387750     0.90700
O117        O  0.26188712  0.11620656  0.00797897    -0.82900
O118        O  0.20591960  0.15947179  0.94006909    -0.76400
Al119      Al  0.21834241  0.09880428  0.99622509     1.90100
O120        O  0.26817978  0.15730067  0.96925331    -0.75500
O121        O  0.22348646  0.11573074  0.89368257    -0.75400
O122        O  0.28935286  0.10659341  0.92582730    -0.81000
O123        O  0.19439606  0.06493429  0.90849198    -0.79200
O124        O  0.23025114  0.09251300  0.95603578    -1.15400
O125        O  0.18740897  0.02993683  0.96254644    -0.74600
C126        C  0.16937176  0.04613167  0.98355055     0.96200
C127        C  0.27350836  0.14728400  0.99763391     0.92600
Al128      Al  0.24587782  0.13163008  0.93362503     1.55600
O129        O  0.23273923  0.04772948  0.00874612    -0.79200
C130        C  0.19815528  0.09257799  0.88999530     0.96700
C131        C  0.19573511  0.17111733  0.96644915     0.91600
O132        O  0.20121205  0.15165751  0.99123184    -0.84500
O133        O  0.07633354  0.35223559  0.74119576    -0.84000
C134        C  0.16881802  0.43103181  0.66579586     0.95400
O135        O  0.16447448  0.39727534  0.67579211    -0.73100
O136        O  0.14331253  0.34657686  0.71923121    -0.76700
Al137      Al  0.12101468  0.37222231  0.68359246     1.49000
C138        C  0.14863371  0.35661217  0.74760667     0.90700
O139        O  0.10788720  0.45618708  0.75864773    -0.82900
O140        O  0.06250322  0.47393943  0.71246700    -0.76400
Al141      Al  0.09347686  0.40509944  0.74617009     1.90100
O142        O  0.13191777  0.47942750  0.71576384    -0.75500
O143        O  0.06947112  0.43882383  0.65845012    -0.75400
O144        O  0.14232098  0.45171397  0.66036668    -0.81000
O145        O  0.09862124  0.38806958  0.64364627    -0.79200
O146        O  0.10537416  0.41135760  0.70598133    -1.15400
O147        O  0.08106882  0.34437624  0.69003878    -0.74600
C148        C  0.07086012  0.33275959  0.71641680     0.96200
C149        C  0.12251601  0.48330653  0.74376070     0.92600
Al150      Al  0.10164576  0.45702546  0.68771616     1.55600
O151        O  0.13702601  0.38770664  0.75792666    -0.79200
C152        C  0.07323531  0.41115401  0.63998172     0.96700
C153        C  0.04448613  0.45776443  0.73349693     0.91600
O154        O  0.04838862  0.42267513  0.73947607    -0.84500
O155        O  0.04718246  0.35198966  0.51083435    -0.84000
C156        C  0.45470095  0.43079310  0.58624711     0.95400
O157        O  0.45906816  0.39702284  0.57628444    -0.73100
O158        O  0.48023272  0.34632030  0.53284210    -0.76700
Al159      Al  0.00255147  0.37200158  0.56846610     1.49000
C160        C  0.47489154  0.35634233  0.50446241     0.90700
O161        O  0.01562653  0.45591382  0.49334574    -0.82900
O162        O  0.06095941  0.47372351  0.53951622    -0.76400
Al163      Al  0.03003791  0.40484152  0.50585746     1.90100
O164        O  0.99153156  0.47913468  0.53620154    -0.75500
O165        O  0.05402168  0.43873411  0.59354962    -0.75400
O166        O  0.48118437  0.45150584  0.59163959    -0.81000
O167        O  0.02497964  0.38791948  0.60839477    -0.79200
O168        O  0.01814752  0.41112702  0.54604773    -1.15400
O169        O  0.04251520  0.34417159  0.56199864    -0.74600
C170        C  0.05268464  0.33252987  0.53561286     0.96200
C171        C  0.00096803  0.48302409  0.50821539     0.92600
Al172      Al  0.02183217  0.45682390  0.56427187     1.55600
O173        O  0.98649076  0.38743277  0.49412411    -0.79200
C174        C  0.05030477  0.41109203  0.61204798     0.96700
C175        C  0.07900881  0.45752351  0.51852309     0.91600
O176        O  0.07511905  0.42242909  0.51255536    -0.84500
O177        O  0.07621549  0.02664873  0.01084358    -0.84000
C178        C  0.16871314  0.44784413  0.08624438     0.95400
O179        O  0.16434860  0.48161191  0.07627674    -0.73100
O180        O  0.14317715  0.03231633  0.03283588    -0.76700
Al181      Al  0.12086578  0.00663841  0.06846464     1.49000
C182        C  0.14850868  0.02229717  0.00445508     0.90700
O183        O  0.10777122  0.42272294  0.99335065    -0.82900
O184        O  0.06244578  0.40491384  0.03952819    -0.76400
Al185      Al  0.09336046  0.47379696  0.00586316     1.90100
O186        O  0.13187218  0.39950121  0.03620405    -0.75500
O187        O  0.06939440  0.43991305  0.09355685    -0.75400
O188        O  0.14222943  0.42713423  0.09164100    -0.81000
O189        O  0.09844547  0.49072418  0.10839645    -0.79200
O190        O  0.10526154  0.46751292  0.04605065    -1.15400
O191        O  0.08090340  0.03447431  0.06200549    -0.74600
C192        C  0.07072207  0.04611136  0.03562135     0.96200
C193        C  0.12243154  0.39561412  0.00821913     0.92600
Al194      Al  0.10157757  0.42181678  0.06427768     1.55600
O195        O  0.13690352  0.99120679  0.99411822    -0.79200
C196        C  0.07311662  0.46755791  0.11205230     0.96700
C197        C  0.04439336  0.42111353  0.01853805     0.91600
O198        O  0.04828076  0.45620833  0.01257101    -0.84500
O199        O  0.04708700  0.02643517  0.24119574    -0.84000
C200        C  0.45460265  0.44763503  0.16579377     0.95400
O201        O  0.45894787  0.48139411  0.17578849    -0.73100
O202        O  0.48010905  0.03209224  0.21922682    -0.76700
Al203      Al  0.00240868  0.00644551  0.18359073     1.49000
C204        C  0.47478783  0.02205939  0.24760248     0.90700
O205        O  0.01553321  0.42248672  0.25865190    -0.82900
O206        O  0.06091203  0.40472818  0.21247245    -0.76400
Al207      Al  0.02994470  0.47357238  0.24617080     1.90100
O208        O  0.99149785  0.39924602  0.21577048    -0.75500
O209        O  0.05394799  0.43983552  0.15845543    -0.75400
O210        O  0.48109935  0.42695235  0.16036915    -0.81000
O211        O  0.02480500  0.49059363  0.14364755    -0.79200
O212        O  0.01804649  0.46731143  0.20598229    -1.15400
O213        O  0.04235497  0.03429196  0.19003842    -0.74600
C214        C  0.05255912  0.04591194  0.21641813     0.96200
C215        C  0.00090003  0.39537004  0.24376829     0.92600
Al216      Al  0.02177199  0.42164131  0.18772107     1.55600
O217        O  0.98639687  0.99096575  0.25792566    -0.79200
C218        C  0.05018717  0.46750476  0.13998495     0.96700
C219        C  0.07893225  0.42090576  0.23349900     0.91600
O220        O  0.07503221  0.45599550  0.23947541    -0.84500
O221        O  0.42322266  0.29750548  0.26253345    -0.84000
C222        C  0.04369798  0.30589328  0.33617137     0.95400
O223        O  0.01721279  0.32660352  0.34157093    -0.73100
O224        O  0.50678171  0.35424657  0.28615243    -0.76700
Al225      Al  0.47652557  0.33189545  0.31424071     1.49000
C226        C  0.49734989  0.35812442  0.25816401     0.90700
O227        O  0.51184568  0.26252856  0.24403679    -0.82900
O228        O  0.45591146  0.21924180  0.31196088    -0.76400
Al229      Al  0.46830362  0.27992922  0.25581023     1.90100
O230        O  0.01815929  0.22143349  0.28275826    -0.75500
O231        O  0.47348583  0.26296665  0.35834594    -0.75400
O232        O  0.03933619  0.27213316  0.32618726    -0.81000
O233        O  0.44437439  0.31375602  0.34355583    -0.79200
O234        O  0.48022531  0.28621154  0.29599681    -1.15400
O235        O  0.43736967  0.34878683  0.28951128    -0.74600
C236        C  0.41933317  0.33259908  0.26850280     0.96200
C237        C  0.02347783  0.23145197  0.25437813     0.92600
Al238      Al  0.49586564  0.24708951  0.31839596     1.55600
O239        O  0.48269764  0.33100897  0.24329562    -0.79200
C240        C  0.44814254  0.28610044  0.36204104     0.96700
C241        C  0.44571223  0.20760546  0.28558366     0.91600
O242        O  0.45117516  0.22707310  0.26080226    -0.84500
O243        O  0.45013820  0.29741217  0.48952679    -0.84000
C244        C  0.32968508  0.30580723  0.41585597     0.95400
O245        O  0.35616732  0.32652511  0.41046925    -0.73100
O246        O  0.36656056  0.35412912  0.46590268    -0.76700
Al247      Al  0.39683832  0.33181758  0.43781560     1.49000
C248        C  0.37599908  0.35801146  0.49388801     0.90700
O249        O  0.36151285  0.26242179  0.50798013    -0.82900
O250        O  0.41748675  0.21916918  0.44006951    -0.76400
Al251      Al  0.40505661  0.27982748  0.49623055     1.90100
O252        O  0.35522324  0.22133105  0.46925175    -0.75500
O253        O  0.39992243  0.26291830  0.39368629    -0.75400
O254        O  0.33405073  0.27204187  0.42582811    -0.81000
O255        O  0.42900421  0.31371788  0.40850316    -0.79200
O256        O  0.39314965  0.28612321  0.45604111    -1.15400
O257        O  0.43598274  0.34870337  0.46256108    -0.74600
C258        C  0.45402444  0.33250898  0.48356218     0.96200
C259        C  0.34989128  0.23134490  0.49763238     0.92600
Al260      Al  0.37752727  0.24700847  0.43362590     1.55600
O261        O  0.39065571  0.33089904  0.50875532    -0.79200
C262        C  0.42524954  0.28607692  0.39000236     0.96700
C263        C  0.42766813  0.20751987  0.46644928     0.91600
O264        O  0.42218958  0.22697587  0.49123332    -0.84500
O265        O  0.29723127  0.02658251  0.74119198    -0.84000
C266        C  0.20472100  0.44778301  0.66579495     0.95400
O267        O  0.20908418  0.48154751  0.67577070    -0.73100
O268        O  0.23026436  0.03225354  0.71920834    -0.76700
Al269      Al  0.25256849  0.00657217  0.68357804     1.49000
C270        C  0.22493753  0.02223842  0.74759083     0.90700
O271        O  0.26567259  0.42265984  0.75869006    -0.82900
O272        O  0.31098678  0.40484243  0.71251007    -0.76400
Al273      Al  0.28008398  0.47373236  0.74617659     1.90100
O274        O  0.24155829  0.39944692  0.71583917    -0.75500
O275        O  0.30403601  0.43984430  0.65848771    -0.75400
O276        O  0.23120461  0.42707330  0.66039967    -0.81000
O277        O  0.27498009  0.49065244  0.64364581    -0.79200
O278        O  0.26817493  0.46744805  0.70599125    -1.15400
O279        O  0.29253343  0.03440480  0.69003062    -0.74600
C280        C  0.30271855  0.04604264  0.71641220     0.96200
C281        C  0.25101110  0.39555202  0.74382086     0.92600
Al282      Al  0.27185431  0.42175203  0.68776454     1.55600
O283        O  0.23654341  0.99114987  0.75792977    -0.79200
C284        C  0.30030802  0.46748537  0.63998868     0.96700
C285        C  0.32904776  0.42104239  0.73349428     0.91600
O286        O  0.32516179  0.45613805  0.73946100    -0.84500
O287        O  0.32628057  0.02632469  0.51083940    -0.84000
C288        C  0.41879647  0.44754066  0.58623247     0.95400
O289        O  0.41445096  0.48129298  0.57622527    -0.73100
O290        O  0.39327360  0.03198660  0.53278582    -0.76700
Al291      Al  0.37098851  0.00634702  0.56843099     1.49000
C292        C  0.39858075  0.02195663  0.50440762     0.90700
O293        O  0.35783041  0.42237677  0.49338930    -0.82900
O294        O  0.31246452  0.40461820  0.53958059    -0.76400
Al295      Al  0.34342274  0.47346332  0.50586563     1.90100
O296        O  0.38188023  0.39914337  0.53626788    -0.75500
O297        O  0.31945242  0.43974847  0.59358822    -0.75400
O298        O  0.39229974  0.42685809  0.59166263    -0.81000
O299        O  0.34860955  0.49050395  0.60838110    -0.79200
O300        O  0.35533902  0.46720976  0.54605003    -1.15400
O301        O  0.33104089  0.03419701  0.56199275    -0.74600
C302        C  0.32082191  0.04580848  0.53561648     0.96200
C303        C  0.37246477  0.39526095  0.50827492     0.92600
Al304      Al  0.35161662  0.42154314  0.56432027     1.55600
O305        O  0.38696606  0.99086289  0.49408820    -0.79200
C306        C  0.32322533  0.46742220  0.61205264     0.96700
C307        C  0.29443813  0.42079333  0.51855802     0.91600
O308        O  0.29833745  0.45588445  0.51258128    -0.84500
O309        O  0.17337727  0.29768690  0.76255097    -0.84000
C310        C  0.29381459  0.30604766  0.83619973     0.95400
O311        O  0.26733777  0.32676535  0.84160468    -0.73100
O312        O  0.25695293  0.35439835  0.78617990    -0.76700
Al313      Al  0.22666950  0.33207723  0.81426100     1.49000
C314        C  0.24750554  0.35829302  0.75819788     0.90700
O315        O  0.26200377  0.26269556  0.74407352    -0.82900
O316        O  0.20600239  0.21942560  0.81197023    -0.76400
Al317      Al  0.21845575  0.28010479  0.75583273     1.90100
O318        O  0.26828184  0.22158753  0.78279122    -0.75500
O319        O  0.22352741  0.26314667  0.85837390    -0.75400
O320        O  0.28943992  0.27227883  0.82624323    -0.81000
O321        O  0.19448957  0.31397658  0.84356462    -0.79200
O322        O  0.23035552  0.28638460  0.79602415    -1.15400
O323        O  0.18752960  0.34897777  0.78951883    -0.74600
C324        C  0.16948921  0.33278317  0.76851689     0.96200
C325        C  0.27361559  0.23160634  0.75440856     0.92600
Al326      Al  0.24596048  0.24725554  0.81843088     1.55600
O327        O  0.23285573  0.33118073  0.74332427    -0.79200
C328        C  0.19819771  0.28631120  0.86204748     0.96700
C329        C  0.19582738  0.20778703  0.78558579     0.91600
O330        O  0.20131887  0.22725174  0.76080877    -0.84500
O331        O  0.20008057  0.29774431  0.98947324    -0.84000
C332        C  0.07963634  0.30610847  0.91583794     0.95400
O333        O  0.10611714  0.32681887  0.91042611    -0.73100
O334        O  0.11652054  0.35447444  0.96584363    -0.76700
Al335      Al  0.14679164  0.33212727  0.93776253     1.49000
C336        C  0.12595720  0.35835980  0.99383049     0.90700
O337        O  0.11145445  0.26275714  0.00797201    -0.82900
O338        O  0.16743201  0.21947442  0.94006553    -0.76400
Al339      Al  0.15500216  0.28016510  0.99619996     1.90100
O340        O  0.10516086  0.22165323  0.96925454    -0.75500
O341        O  0.14990541  0.26318153  0.89366350    -0.75400
O342        O  0.08400697  0.27234084  0.92580201    -0.81000
O343        O  0.17896564  0.31400018  0.90845921    -0.79200
O344        O  0.14309554  0.28644073  0.95601007    -1.15400
O345        O  0.18593418  0.34902833  0.96249610    -0.74600
C346        C  0.20396905  0.33283803  0.98350263     0.96200
C347        C  0.09983210  0.23167309  0.99763680     0.92600
Al348      Al  0.12747939  0.24730982  0.93361070     1.55600
O349        O  0.14060388  0.33124574  0.00870360    -0.79200
C350        C  0.17524824  0.28632690  0.88998594     0.96700
C351        C  0.17761589  0.20783879  0.96644678     0.91600
O352        O  0.17213621  0.22730862  0.99122430    -0.84500
O353        O  0.32621158  0.27664923  0.01083164    -0.84000
C354        C  0.41870632  0.19784523  0.08623482     0.95400
O355        O  0.41434160  0.23161262  0.07626632    -0.73100
O356        O  0.39317073  0.28231868  0.03282752    -0.76700
Al357      Al  0.37085863  0.25663696  0.06845417     1.49000
C358        C  0.39850702  0.27230032  0.00444700     0.90700
O359        O  0.35777158  0.17272508  0.99333714    -0.82900
O360        O  0.31244205  0.15491413  0.03951377    -0.76400
Al361      Al  0.34335862  0.22379795  0.00584949     1.90100
O362        O  0.38186838  0.14950401  0.03619288    -0.75500
O363        O  0.31938587  0.18991192  0.09354486    -0.75400
O364        O  0.39222184  0.17713478  0.09163015    -0.81000
O365        O  0.34843924  0.24072073  0.10838592    -0.79200
O366        O  0.35525623  0.21751271  0.04603829    -1.15400
O367        O  0.33089534  0.28446806  0.06199466    -0.74600
C368        C  0.32071706  0.29610812  0.03561148     0.96200
C369        C  0.37242935  0.14561527  0.00820720     0.92600
Al370      Al  0.35157163  0.17181703  0.06426520     1.55600
O371        O  0.38690292  0.24121161  0.99410766    -0.79200
C372        C  0.32310949  0.21755385  0.11204330     0.96700
C373        C  0.29439126  0.17111129  0.01852225     0.91600
O374        O  0.29827860  0.20620596  0.01255201    -0.84500
O375        O  0.29708673  0.27643772  0.24119329    -0.84000
C376        C  0.20460028  0.19763445  0.16579544     0.95400
O377        O  0.20894723  0.23139430  0.17578766    -0.73100
O378        O  0.23011039  0.28209409  0.21922291    -0.76700
Al379      Al  0.25240920  0.25644536  0.18358809     1.49000
C380        C  0.22478648  0.27206246  0.24759880     0.90700
O381        O  0.26553391  0.17248935  0.25865368    -0.82900
O382        O  0.31091539  0.15473116  0.21247338    -0.76400
Al383      Al  0.27994452  0.22357505  0.24617033     1.90100
O384        O  0.24150019  0.14924812  0.21577235    -0.75500
O385        O  0.30394698  0.18983366  0.15845096    -0.75400
O386        O  0.23109635  0.17694984  0.16037201    -0.81000
O387        O  0.27480331  0.24059146  0.14364393    -0.79200
O388        O  0.26804781  0.21731242  0.20598114    -1.15400
O389        O  0.29235666  0.28429241  0.19003543    -0.74600
C390        C  0.30256009  0.29591244  0.21641423     0.96200
C391        C  0.25090163  0.14537196  0.24376981     0.92600
Al392      Al  0.27177281  0.17164165  0.18772143     1.55600
O393        O  0.23639577  0.24096820  0.25792268    -0.79200
C394        C  0.30018359  0.21750091  0.13997864     0.96700
C395        C  0.32893508  0.17090747  0.23350217     0.91600
O396        O  0.32503280  0.20599785  0.23947892    -0.84500
O397        O  0.20013604  0.04740259  0.48951996    -0.84000
C398        C  0.07968234  0.05580132  0.41585349     0.95400
O399        O  0.10616420  0.07651694  0.41046341    -0.73100
O400        O  0.11656419  0.10413004  0.46589197    -0.76700
Al401      Al  0.14683882  0.08180911  0.43780693     1.49000
C402        C  0.12599991  0.10801441  0.49387763     0.90700
O403        O  0.11150855  0.01242727  0.50797633    -0.82900
O404        O  0.16748082  0.46916032  0.44007001    -0.76400
Al405      Al  0.15505341  0.02982584  0.49622589     1.90100
O406        O  0.10521912  0.47132926  0.46925313    -0.75500
O407        O  0.14991723  0.01290401  0.39368164    -0.75400
O408        O  0.08404652  0.02203587  0.42582591    -0.81000
O409        O  0.17900245  0.06370206  0.40849533    -0.79200
O410        O  0.14314683  0.03611742  0.45603615    -1.15400
O411        O  0.18598591  0.09869258  0.46255084    -0.74600
C412        C  0.20402530  0.08249720  0.48355350     0.96200
C413        C  0.09988880  0.48134743  0.49763300     0.92600
Al414      Al  0.12752241  0.99700084  0.43362431     1.55600
O415        O  0.14065621  0.08090172  0.50874658    -0.79200
C416        C  0.17524575  0.03606115  0.38999623     0.96700
C417        C  0.17766388  0.45751355  0.46645043     0.91600
O418        O  0.17218345  0.47697143  0.49123353    -0.84500
O419        O  0.17322392  0.04750378  0.26252467    -0.84000
C420        C  0.29369418  0.05588418  0.33616735     0.95400
O421        O  0.26720880  0.07659227  0.34156883    -0.73100
O422        O  0.25677889  0.10424607  0.28615391    -0.76700
Al423      Al  0.22652223  0.08188774  0.31423778     1.49000
C424        C  0.24735014  0.10812654  0.25816396     0.90700
O425        O  0.26184795  0.01252961  0.24402770    -0.82900
O426        O  0.20591063  0.46923790  0.31194625    -0.76400
Al427      Al  0.21830510  0.02992958  0.25580148     1.90100
O428        O  0.26815887  0.47143083  0.28274704    -0.75500
O429        O  0.22348237  0.01295305  0.35833716    -0.75400
O430        O  0.28933382  0.02212465  0.32618020    -0.81000
O431        O  0.19436889  0.06374099  0.34354950    -0.79200
O432        O  0.23022467  0.03620706  0.29598906    -1.15400
O433        O  0.18736778  0.09878139  0.28950870    -0.74600
C434        C  0.16933230  0.08259617  0.26849773     0.96200
C435        C  0.27347922  0.48145261  0.25436734     0.92600
Al436      Al  0.24586409  0.99708246  0.31838546     1.55600
O437        O  0.23269989  0.08101106  0.24329325    -0.79200
C438        C  0.19813820  0.03608489  0.36203180     0.96700
C439        C  0.19571155  0.45760415  0.28556879     0.91600
O440        O  0.20117586  0.47707235  0.26078792    -0.84500
O441        O  0.04722822  0.27658392  0.74118871    -0.84000
C442        C  0.45471310  0.19779096  0.66578817     0.95400
O443        O  0.45907812  0.23155506  0.67576389    -0.73100
O444        O  0.48026067  0.28225568  0.71920578    -0.76700
Al445      Al  0.00256366  0.25658072  0.68357273     1.49000
C446        C  0.47493681  0.27223819  0.74758797     0.90700
O447        O  0.01567422  0.17265896  0.75867786    -0.82900
O448        O  0.06098860  0.15485017  0.71249525    -0.76400
Al449      Al  0.03008273  0.22373369  0.74616778     1.90100
O450        O  0.99155973  0.14944761  0.71582676    -0.75500
O451        O  0.05403012  0.18985698  0.65847391    -0.75400
O452        O  0.48119705  0.17708103  0.66039117    -0.81000
O453        O  0.02497497  0.24066762  0.64363749    -0.79200
O454        O  0.01817179  0.21745402  0.70598225    -1.15400
O455        O  0.04252798  0.28441563  0.69002821    -0.74600
C456        C  0.05271643  0.29604871  0.71641079     0.96200
C457        C  0.00101180  0.14555157  0.74380744     0.92600
Al458      Al  0.02185174  0.17175985  0.68775207     1.55600
O459        O  0.98654270  0.24114708  0.75792361    -0.79200
C460        C  0.05030243  0.21749945  0.63997736     0.96700
C461        C  0.07904778  0.17105007  0.73348039     0.91600
O462        O  0.07516091  0.20614453  0.73944816    -0.84500
O463        O  0.07627814  0.27633268  0.51082587    -0.84000
C464        C  0.16878842  0.19754339  0.58621926     0.95400
O465        O  0.16444678  0.23129488  0.57621007    -0.73100
O466        O  0.14327227  0.28198861  0.53277034    -0.76700
Al467      Al  0.12098672  0.25635236  0.56841665     1.49000
C468        C  0.14857818  0.27195855  0.50439253     0.90700
O469        O  0.10782527  0.17237903  0.49337807    -0.82900
O470        O  0.06245821  0.15462971  0.53957126    -0.76400
Al471      Al  0.09341844  0.22346900  0.50585219     1.90100
O472        O  0.13187070  0.14914601  0.53625941    -0.75500
O473        O  0.06944287  0.18976398  0.59357471    -0.75400
O474        O  0.14229003  0.17686506  0.59165254    -0.81000
O475        O  0.09860683  0.24051354  0.60836852    -0.79200
O476        O  0.10533467  0.21721625  0.54603684    -1.15400
O477        O  0.08104184  0.28420267  0.56197936    -0.74600
C478        C  0.07082143  0.29581569  0.53560412     0.96200
C479        C  0.12245922  0.14526321  0.50826445     0.92600
Al480      Al  0.10160796  0.17155207  0.56430945     1.55600
O481        O  0.13696168  0.24086480  0.49407312    -0.79200
C482        C  0.07321835  0.21743637  0.61203955     0.96700
C483        C  0.04443273  0.17080490  0.51854762     0.91600
O484        O  0.04833295  0.20589415  0.51256902    -0.84500
O485        O  0.42337448  0.04768616  0.76253214    -0.84000
C486        C  0.04380399  0.05605236  0.83618978     0.95400
O487        O  0.01732506  0.07676776  0.84159460    -0.73100
O488        O  0.50694394  0.10440080  0.78617017    -0.76700
Al489      Al  0.47665935  0.08207710  0.81424905     1.49000
C490        C  0.49750181  0.10829261  0.75818591     0.90700
O491        O  0.51200429  0.01269432  0.74406461    -0.82900
O492        O  0.45599736  0.46942907  0.81196026    -0.76400
Al493      Al  0.46845427  0.03010302  0.75581994     1.90100
O494        O  0.01827827  0.47158826  0.78278420    -0.75500
O495        O  0.47351986  0.01314936  0.85836348    -0.75400
O496        O  0.03943075  0.02228222  0.82623363    -0.81000
O497        O  0.44447690  0.06397394  0.84355157    -0.79200
O498        O  0.48034933  0.03638524  0.79601242    -1.15400
O499        O  0.43752219  0.09897478  0.78950468    -0.74600
C500        C  0.41948515  0.08277969  0.76850097     0.96200
C501        C  0.02361665  0.48160637  0.75440175     0.92600
Al502      Al  0.49595423  0.99725788  0.81842123     1.55600
O503        O  0.48285515  0.08118015  0.74331168    -0.79200
C504        C  0.44818834  0.03631063  0.86203637     0.96700
C505        C  0.44582538  0.45778663  0.78557673     0.91600
O506        O  0.45131734  0.47724840  0.76079775    -0.84500
O507        O  0.45007501  0.04774487  0.98946940    -0.84000
C508        C  0.32962871  0.05609989  0.91583181     0.95400
O509        O  0.35610725  0.07681303  0.91042066    -0.73100
O510        O  0.36651382  0.10447128  0.96583596    -0.76700
Al511      Al  0.39678499  0.08212447  0.93775543     1.49000
C512        C  0.37595209  0.10836026  0.99382172     0.90700
O513        O  0.36144865  0.01275784  0.00796548    -0.82900
O514        O  0.41743179  0.46947276  0.94006382    -0.76400
Al515      Al  0.40499657  0.03016607  0.99619493     1.90100
O516        O  0.35516003  0.47164923  0.96925059    -0.75500
O517        O  0.39990077  0.01317657  0.89365750    -0.75400
O518        O  0.33400123  0.02233287  0.92579590    -0.81000
O519        O  0.42895793  0.06399883  0.90845040    -0.79200
O520        O  0.39309085  0.03643870  0.95600404    -1.15400
O521        O  0.43593015  0.09902773  0.96248943    -0.74600
C522        C  0.45396584  0.08283948  0.98349788     0.96200
C523        C  0.34982983  0.48167110  0.99763214     0.92600
Al524      Al  0.37747665  0.99730532  0.93360615     1.55600
O525        O  0.39059829  0.08124654  0.00869634    -0.79200
C526        C  0.42524054  0.03632454  0.88997610     0.96700
C527        C  0.42761516  0.45784090  0.96644596     0.91600
O528        O  0.42213208  0.47731054  0.99122261    -0.84500
O529        O  0.42326458  0.33122890  0.98951590    -0.84000
C530        C  0.04372773  0.32284035  0.91586003     0.95400
O531        O  0.01724497  0.30212590  0.91046760    -0.73100
O532        O  0.50683941  0.27450564  0.96589495    -0.76700
Al533      Al  0.47656876  0.29683069  0.93780827     1.49000
C534        C  0.49739799  0.27061959  0.99387935     0.90700
O535        O  0.51188904  0.36621004  0.00798918    -0.82900
O536        O  0.45593071  0.40947899  0.94007361    -0.76400
Al537      Al  0.46834622  0.34880850  0.99622932     1.90100
O538        O  0.01818684  0.40730708  0.96926609    -0.75500
O539        O  0.47350201  0.36573975  0.89368798    -0.75400
O540        O  0.03936491  0.35660231  0.92583889    -0.81000
O541        O  0.44440938  0.31494392  0.90849604    -0.79200
O542        O  0.48026005  0.34252010  0.95604131    -1.15400
O543        O  0.43741861  0.27994175  0.96254656    -0.74600
C544        C  0.41937634  0.29613496  0.98354761     0.96200
C545        C  0.02351236  0.39728890  0.99764682     0.92600
Al546      Al  0.49588932  0.38163851  0.93363355     1.55600
O547        O  0.48274290  0.29773155  0.00874846    -0.79200
C548        C  0.44817061  0.34258594  0.88999924     0.96700
C549        C  0.44574002  0.42112219  0.96645186     0.91600
O550        O  0.45121492  0.40166228  0.99123564    -0.84500
O551        O  0.45018921  0.33116930  0.76252270    -0.84000
C552        C  0.32972505  0.32277846  0.83617422     0.95400
O553        O  0.35621054  0.30206819  0.84157032    -0.73100
O554        O  0.36663724  0.27442213  0.78615189    -0.76700
Al555      Al  0.39689526  0.29677694  0.81423702     1.49000
C556        C  0.37606414  0.27054686  0.75816083     0.90700
O557        O  0.36156298  0.36614268  0.74403900    -0.82900
O558        O  0.41751016  0.40942829  0.81195235    -0.76400
Al559      Al  0.40510730  0.34874328  0.75580495     1.90100
O560        O  0.35525832  0.40723924  0.78276037    -0.75500
O561        O  0.39993926  0.36570595  0.85834196    -0.75400
O562        O  0.33408580  0.35654028  0.82619088    -0.81000
O563        O  0.42904948  0.31491782  0.84354887    -0.79200
O564        O  0.39319211  0.34246062  0.79599323    -1.15400
O565        O  0.43604785  0.27988892  0.78950517    -0.74600
C566        C  0.45408088  0.29607731  0.76849429     0.96200
C567        C  0.34993426  0.39721957  0.75438124     0.92600
Al568      Al  0.37755599  0.38158272  0.81839413     1.55600
O569        O  0.39071276  0.29766328  0.74329238    -0.79200
C570        C  0.42528249  0.34257055  0.86203529     0.96700
C571        C  0.42770469  0.42106602  0.78557341     0.91600
O572        O  0.42223572  0.40159924  0.76079261    -0.84500
O573        O  0.04711665  0.10230265  0.01083610    -0.84000
C574        C  0.45460873  0.18109600  0.08622653     0.95400
O575        O  0.45895524  0.14734071  0.07622450    -0.73100
O576        O  0.48012832  0.09664285  0.03278781    -0.76700
Al577      Al  0.00241776  0.12228800  0.06843012     1.49000
C578        C  0.47481642  0.10667307  0.00440919     0.90700
O579        O  0.01556437  0.20625147  0.99337817    -0.82900
O580        O  0.06093200  0.22401171  0.03956450    -0.76400
Al581      Al  0.02997341  0.15516469  0.00585831     1.90100
O582        O  0.99151507  0.22948318  0.03625672    -0.75500
O583        O  0.05395341  0.18889523  0.09357694    -0.75400
O584        O  0.48110641  0.20177827  0.09165497    -0.81000
O585        O  0.02480258  0.13813886  0.10837823    -0.79200
O586        O  0.01806297  0.16142241  0.04604393    -1.15400
O587        O  0.04236558  0.09443981  0.06199141    -0.74600
C588        C  0.05258129  0.08282393  0.03561446     0.96200
C589        C  0.00093016  0.23336771  0.00826341     0.92600
Al590      Al  0.02178451  0.20709154  0.06430864     1.55600
O591        O  0.98642889  0.13776620  0.99408854    -0.79200
C592        C  0.05018486  0.16122591  0.11204618     0.96700
C593        C  0.07895878  0.20783451  0.01854218     0.91600
O594        O  0.07505907  0.17274359  0.01256676    -0.84500
O595        O  0.07618075  0.10209090  0.24119218    -0.84000
C596        C  0.16869522  0.18088583  0.16579438     0.95400
O597        O  0.16433061  0.14712281  0.17577022    -0.73100
O598        O  0.14314960  0.09642095  0.21921084    -0.76700
Al599      Al  0.12084604  0.12209660  0.18357810     1.49000
C600        C  0.14847434  0.10643632  0.24759382     0.90700
O601        O  0.10773631  0.20601532  0.25868293    -0.82900
O602        O  0.06242050  0.22382756  0.21250014    -0.76400
Al603      Al  0.09332644  0.15494162  0.24617314     1.90100
O604        O  0.13184898  0.22922693  0.21583061    -0.75500
O605        O  0.06937682  0.18881795  0.15847694    -0.75400
O606        O  0.14221143  0.20159603  0.16039570    -0.81000
O607        O  0.09843461  0.13800846  0.14364301    -0.79200
O608        O  0.10523710  0.16122232  0.20598729    -1.15400
O609        O  0.08088283  0.09426252  0.19003161    -0.74600
C610        C  0.07069546  0.08262642  0.21641434     0.96200
C611        C  0.12239810  0.23312267  0.24381162     0.92600
Al612      Al  0.10155638  0.20691645  0.18775639     1.55600
O613        O  0.13686678  0.13752602  0.25793038    -0.79200
C614        C  0.07310430  0.16117358  0.13998287     0.96700
C615        C  0.04436177  0.20762829  0.23348726     0.91600
O616        O  0.04824825  0.17253372  0.23945425    -0.84500
O617        O  0.20003925  0.33098467  0.26253674    -0.84000
C618        C  0.07960817  0.32262349  0.33619467     0.95400
O619        O  0.10608515  0.30190595  0.34159715    -0.73100
O620        O  0.11646288  0.27427552  0.28617140    -0.76700
Al621      Al  0.14675002  0.29659384  0.31425007     1.49000
C622        C  0.12590786  0.27038106  0.25818845     0.90700
O623        O  0.11141083  0.36597580  0.24406720    -0.82900
O624        O  0.16741984  0.40924122  0.31195921    -0.76400
Al625      Al  0.15495981  0.34856750  0.25582201     1.90100
O626        O  0.10513808  0.40708338  0.28278581    -0.75500
O627        O  0.14989652  0.36552060  0.35836392    -0.75400
O628        O  0.08398235  0.35639327  0.32623751    -0.81000
O629        O  0.17893319  0.31469190  0.34355057    -0.79200
O630        O  0.14306349  0.34228630  0.29601430    -1.15400
O631        O  0.18588705  0.27969415  0.28950539    -0.74600
C632        C  0.20392731  0.29589097  0.26850480     0.96200
C633        C  0.09980030  0.39706430  0.25440443     0.92600
Al634      Al  0.12746161  0.38141442  0.31842280     1.55600
O635        O  0.14055856  0.29749145  0.24331442    -0.79200
C636        C  0.17522513  0.34235472  0.36203634     0.96700
C637        C  0.17759006  0.42088386  0.28557476     0.91600
O638        O  0.17209654  0.40142095  0.26079666    -0.84500
O639        O  0.17331692  0.33088512  0.48945238    -0.84000
C640        C  0.29377462  0.32253756  0.41583774     0.95400
O641        O  0.26729624  0.30182734  0.41041983    -0.73100
O642        O  0.25687779  0.27415459  0.46582982    -0.76700
Al643      Al  0.22661431  0.29651307  0.43774865     1.49000
C644        C  0.24743685  0.27026396  0.49381526     0.90700
O645        O  0.26194042  0.36586934  0.50797967    -0.82900
O646        O  0.20597811  0.40916576  0.44006687    -0.76400
Al647      Al  0.21839426  0.34846140  0.49619328     1.90100
O648        O  0.26824290  0.40697799  0.46926634    -0.75500
O649        O  0.22351407  0.36547117  0.39366123    -0.75400
O650        O  0.28940480  0.35630052  0.42580873    -0.81000
O651        O  0.19444745  0.31465163  0.40844441    -0.79200
O652        O  0.23031026  0.34219477  0.45600494    -1.15400
O653        O  0.18746475  0.27960455  0.46247347    -0.74600
C654        C  0.16942736  0.29579370  0.48347954     0.96200
C655        C  0.27356605  0.39695409  0.49764904     0.92600
Al656      Al  0.24593163  0.38133123  0.43361498     1.55600
O657        O  0.23278922  0.29737699  0.50868991    -0.79200
C658        C  0.19817087  0.34233051  0.38997661     0.96700
C659        C  0.19578687  0.42079353  0.46644731     0.91600
O660        O  0.20126104  0.40131918  0.49122312    -0.84500
O661        O  0.32632881  0.10223539  0.74119133    -0.84000
C662        C  0.41880865  0.18104061  0.66578906     0.95400
O663        O  0.41446367  0.14728110  0.67578092    -0.73100
O664        O  0.39330551  0.09657922  0.71921819    -0.76700
Al665      Al  0.37100381  0.12222645  0.68358393     1.49000
C666        C  0.39862808  0.10661056  0.74759347     0.90700
O667        O  0.35788175  0.20618291  0.75864719    -0.82900
O668        O  0.31249362  0.22393965  0.71246736    -0.76400
Al669      Al  0.34347076  0.15509787  0.74616606     1.90100
O670        O  0.38190644  0.22943083  0.71576344    -0.75500
O671        O  0.31945929  0.18883091  0.65844600    -0.75400
O672        O  0.39231097  0.20172357  0.66036408    -0.81000
O673        O  0.34860644  0.13807530  0.64364077    -0.79200
O674        O  0.35536471  0.16135996  0.70597636    -1.15400
O675        O  0.33105883  0.09437720  0.69003380    -0.74600
C676        C  0.32085581  0.08275819  0.71641389     0.96200
C677        C  0.37251040  0.23330325  0.74376234     0.92600
Al678      Al  0.35163490  0.20702976  0.68771413     1.55600
O679        O  0.38702045  0.13770478  0.75791712    -0.79200
C680        C  0.32322158  0.16115962  0.63997600     0.96700
C681        C  0.29447971  0.20776382  0.73349938     0.91600
O682        O  0.29838189  0.17267427  0.73947656    -0.84500
O683        O  0.29718694  0.10198024  0.51083875    -0.84000
C684        C  0.20469129  0.18079169  0.58623419     0.95400
O685        O  0.20905718  0.14702182  0.57627094    -0.73100
O686        O  0.23022848  0.09631181  0.53283583    -0.76700
Al687      Al  0.25254192  0.12199804  0.56846070     1.49000
C688        C  0.22489266  0.10632947  0.50445416     0.90700
O689        O  0.26562507  0.20590120  0.49333378    -0.82900
O690        O  0.31094936  0.22372083  0.53950597    -0.76400
Al691      Al  0.28003963  0.15483051  0.50585214     1.90100
O692        O  0.24152001  0.22912010  0.53618576    -0.75500
O693        O  0.30400976  0.18873688  0.59354155    -0.75400
O694        O  0.23117495  0.20150262  0.59162805    -0.81000
O695        O  0.27496568  0.13792400  0.60839008    -0.79200
O696        O  0.26814225  0.16111997  0.54604045    -1.15400
O697        O  0.29250576  0.09416482  0.56200257    -0.74600
C698        C  0.30268304  0.08252204  0.53561981     0.96200
C699        C  0.25096110  0.23301019  0.50820055     0.92600
Al700      Al  0.27182173  0.20681950  0.56426036     1.55600
O701        O  0.23649661  0.13741737  0.49411413    -0.79200
C702        C  0.30029074  0.16109675  0.61204395     0.96700
C703        C  0.32900522  0.20752037  0.51851813     0.91600
O704        O  0.32511929  0.17242468  0.51255215    -0.84500
O705        O  0.42331701  0.58088658  0.48946518    -0.84000
C706        C  0.04377126  0.57253258  0.41583805     0.95400
O707        O  0.01729170  0.55182135  0.41042549    -0.73100
O708        O  0.50688149  0.52416347  0.46584164    -0.76700
Al709      Al  0.47661328  0.54651099  0.43775897     1.49000
C710        C  0.49744260  0.52027560  0.49382847     0.90700
O711        O  0.51193913  0.61587974  0.50797634    -0.82900
O712        O  0.45597402  0.65916523  0.44006449    -0.76400
Al713      Al  0.46839431  0.59846858  0.49619773     1.90100
O714        O  0.01823989  0.65698216  0.46925828    -0.75500
O715        O  0.47350720  0.61546059  0.39366383    -0.75400
O716        O  0.03940131  0.60629691  0.42580638    -0.81000
O717        O  0.44444278  0.56464149  0.40845358    -0.79200
O718        O  0.48030731  0.59219606  0.45600892    -1.15400
O719        O  0.43746747  0.52960411  0.46248896    -0.74600
C720        C  0.41942907  0.54579224  0.48349485     0.96200
C721        C  0.02356320  0.64696411  0.49764162     0.92600
Al722      Al  0.49592715  0.63132864  0.43361280     1.55600
O723        O  0.48279332  0.54738926  0.50870071    -0.79200
C724        C  0.44816381  0.59231835  0.38998201     0.96700
C725        C  0.44578621  0.67079645  0.46644591     0.91600
O726        O  0.45125923  0.65132396  0.49122168    -0.84500
O727        O  0.45004475  0.58098332  0.26254667    -0.84000
C728        C  0.32960392  0.57261528  0.33619236     0.95400
O729        O  0.35608114  0.55189612  0.34159501    -0.73100
O730        O  0.36646305  0.52427549  0.28616611    -0.76700
Al731      Al  0.39674750  0.54658745  0.31425045     1.49000
C732        C  0.37591131  0.52038341  0.25818436     0.90700
O733        O  0.36142000  0.61598133  0.24406782    -0.82900
O734        O  0.41741816  0.65923977  0.31197153    -0.76400
Al735      Al  0.40496674  0.59856903  0.25582776     1.90100
O736        O  0.35513851  0.65708163  0.28279048    -0.75500
O737        O  0.39989092  0.61550908  0.35836973    -0.75400
O738        O  0.33397960  0.60638487  0.32623735    -0.81000
O739        O  0.42892716  0.56467957  0.34355631    -0.79200
O740        O  0.39306455  0.59228319  0.29601826    -1.15400
O741        O  0.43588648  0.52968929  0.28950834    -0.74600
C742        C  0.45393006  0.54588748  0.26851055     0.96200
C743        C  0.34980455  0.64706657  0.25440649     0.92600
Al744      Al  0.37745937  0.63140854  0.31842822     1.55600
O745        O  0.39056552  0.54749472  0.24331343    -0.79200
C746        C  0.42521805  0.59234073  0.36204288     0.96700
C747        C  0.42759216  0.67088315  0.28558855     0.91600
O748        O  0.42210359  0.65142146  0.26080969    -0.84500
O749        O  0.29711329  0.85230291  0.01083086    -0.84000
C750        C  0.20461627  0.93109383  0.08623310     0.95400
O751        O  0.20896118  0.89733872  0.07623089    -0.73100
O752        O  0.23013038  0.84664217  0.03279163    -0.76700
Al753      Al  0.25242279  0.87228581  0.06843139     1.49000
C754        C  0.22481732  0.85667341  0.00441477     0.90700
O755        O  0.26556199  0.95625065  0.99338019    -0.82900
O756        O  0.31093591  0.97400831  0.03956327    -0.76400
Al757      Al  0.27997142  0.90516449  0.00585783     1.90100
O758        O  0.24151992  0.97948558  0.03626083    -0.75500
O759        O  0.30396195  0.93888944  0.09357432    -0.75400
O760        O  0.23111461  0.95177613  0.09165935    -0.81000
O761        O  0.27481109  0.88813422  0.10837729    -0.79200
O762        O  0.26806577  0.91142120  0.04604447    -1.15400
O763        O  0.29236970  0.84443837  0.06198663    -0.74600
C764        C  0.30257974  0.83282242  0.03560831     0.96200
C765        C  0.25092989  0.98336624  0.00826582     0.92600
Al766      Al  0.27179054  0.95708910  0.06431005     1.55600
O767        O  0.23642546  0.88776846  0.99409382    -0.79200
C768        C  0.30019364  0.91121917  0.11204336     0.96700
C769        C  0.32895888  0.95783176  0.01853901     0.91600
O770        O  0.32505834  0.92274154  0.01256203    -0.84500
O771        O  0.32618304  0.85209258  0.24118822    -0.84000
C772        C  0.41869976  0.93088493  0.16579172     0.95400
O773        O  0.41433667  0.89712187  0.17577055    -0.73100
O774        O  0.39315448  0.84642084  0.21921237    -0.76700
Al775      Al  0.37085316  0.87209485  0.18357685     1.49000
C776        C  0.39847649  0.85643814  0.24759535     0.90700
O777        O  0.35773860  0.95601823  0.25867583    -0.82900
O778        O  0.31242446  0.97382855  0.21249193    -0.76400
Al779      Al  0.34332893  0.90494372  0.24616807     1.90100
O780        O  0.38185227  0.97923077  0.21582385    -0.75500
O781        O  0.31938337  0.93881296  0.15847282    -0.75400
O782        O  0.39221559  0.95159223  0.16039039    -0.81000
O783        O  0.34844432  0.88800480  0.14364023    -0.79200
O784        O  0.35524234  0.91122229  0.20598349    -1.15400
O785        O  0.33088986  0.84425993  0.19002851    -0.74600
C786        C  0.32069911  0.83262642  0.21641085     0.96200
C787        C  0.37240115  0.98312607  0.24380528     0.92600
Al788      Al  0.35156121  0.95691541  0.18775017     1.55600
O789        O  0.38686839  0.88752866  0.25792933    -0.79200
C790        C  0.32311337  0.91116773  0.13997915     0.96700
C791        C  0.29436515  0.95762960  0.23347720     0.91600
O792        O  0.29825126  0.92253479  0.23944502    -0.84500
O793        O  0.20018768  0.58117137  0.76252317    -0.84000
C794        C  0.07971268  0.57278381  0.83616345     0.95400
O795        O  0.10619719  0.55207292  0.84156081    -0.73100
O796        O  0.11662308  0.52443568  0.78613979    -0.76700
Al797      Al  0.14688179  0.54678015  0.81422857     1.49000
C798        C  0.12605930  0.52055407  0.75815178     0.90700
O799        O  0.11156623  0.61615223  0.74402765    -0.82900
O800        O  0.16750082  0.65943127  0.81195416    -0.76400
Al801      Al  0.15510734  0.59874942  0.75580042     1.90100
O802        O  0.10525335  0.65724523  0.78275054    -0.75500
O803        O  0.14992464  0.61570299  0.85833752    -0.75400
O804        O  0.08407370  0.60654379  0.82617822    -0.81000
O805        O  0.17903389  0.56491372  0.84354364    -0.79200
O806        O  0.14318485  0.59246528  0.79598686    -1.15400
O807        O  0.18603643  0.52988941  0.78949920    -0.74600
C808        C  0.20407603  0.54607777  0.76849350     0.96200
C809        C  0.09993418  0.64722748  0.75437009     0.92600
Al810      Al  0.12754579  0.63158579  0.81838767     1.55600
O811        O  0.14071212  0.54766977  0.74328396    -0.79200
C812        C  0.17526596  0.59256457  0.86203188     0.96700
C813        C  0.17770279  0.67106890  0.78557738     0.91600
O814        O  0.17223784  0.65160430  0.76079492    -0.84500
O815        O  0.17326017  0.58122499  0.98951691    -0.84000
C816        C  0.29371666  0.57282926  0.91585257     0.95400
O817        O  0.26723459  0.55211322  0.91046329    -0.73100
O818        O  0.25682843  0.52449731  0.96589141    -0.76700
Al819      Al  0.22655738  0.54682209  0.93780493     1.49000
C820        C  0.24739224  0.52061557  0.99387764     0.90700
O821        O  0.26188711  0.61620656  0.00797894    -0.82900
O822        O  0.20591952  0.65947183  0.94006910    -0.76400
Al823      Al  0.21834234  0.59880430  0.99622509     1.90100
O824        O  0.26817985  0.65730064  0.96925337    -0.75500
O825        O  0.22348668  0.61573091  0.89368270    -0.75400
O826        O  0.28935297  0.60659335  0.92582730    -0.81000
O827        O  0.19439607  0.56493441  0.90849199    -0.79200
O828        O  0.23025105  0.59251300  0.95603580    -1.15400
O829        O  0.18740909  0.52993684  0.96254633    -0.74600
C830        C  0.16937132  0.54613156  0.98355087     0.96200
C831        C  0.27350820  0.64728394  0.99763381     0.92600
Al832      Al  0.24587771  0.63163007  0.93362500     1.55600
O833        O  0.23273921  0.54772938  0.00874605    -0.79200
C834        C  0.19815453  0.59257759  0.88999510     0.96700
C835        C  0.19573505  0.67111732  0.96644922     0.91600
O836        O  0.20121199  0.65165757  0.99123186    -0.84500
O837        O  0.07633345  0.85223552  0.74119573    -0.84000
C838        C  0.16881786  0.93103202  0.66579580     0.95400
O839        O  0.16447439  0.89727521  0.67579214    -0.73100
O840        O  0.14331249  0.84657682  0.71923126    -0.76700
Al841      Al  0.12101469  0.87222228  0.68359250     1.49000
C842        C  0.14863350  0.85661225  0.74760651     0.90700
O843        O  0.10788734  0.95618729  0.75864769    -0.82900
O844        O  0.06250324  0.97393948  0.71246706    -0.76400
Al845      Al  0.09347688  0.90509940  0.74617010     1.90100
O846        O  0.13191783  0.97942750  0.71576376    -0.75500
O847        O  0.06947102  0.93882387  0.65844998    -0.75400
O848        O  0.14232102  0.95171392  0.66036673    -0.81000
O849        O  0.09862096  0.88806974  0.64364614    -0.79200
O850        O  0.10537423  0.91135761  0.70598129    -1.15400
O851        O  0.08106868  0.84437632  0.69003878    -0.74600
C852        C  0.07086021  0.83275979  0.71641679     0.96200
C853        C  0.12251570  0.98330617  0.74376097     0.92600
Al854      Al  0.10164580  0.95702542  0.68771620     1.55600
O855        O  0.13702606  0.88770673  0.75792665    -0.79200
C856        C  0.07323589  0.91115376  0.63998198     0.96700
C857        C  0.04448653  0.95776377  0.73349673     0.91600
O858        O  0.04838845  0.92267545  0.73947606    -0.84500
O859        O  0.04718246  0.85198961  0.51083435    -0.84000
C860        C  0.45470166  0.93079344  0.58624724     0.95400
O861        O  0.45906804  0.89702271  0.57628443    -0.73100
O862        O  0.48023274  0.84632034  0.53284210    -0.76700
Al863      Al  0.00255144  0.87200158  0.56846614     1.49000
C864        C  0.47489113  0.85634167  0.50446239     0.90700
O865        O  0.01562652  0.95591378  0.49334569    -0.82900
O866        O  0.06095956  0.97372346  0.53951616    -0.76400
Al867      Al  0.03003783  0.90484155  0.50585747     1.90100
O868        O  0.99153151  0.97913469  0.53620144    -0.75500
O869        O  0.05402148  0.93873418  0.59354950    -0.75400
O870        O  0.48118410  0.95150558  0.59163956    -0.81000
O871        O  0.02497934  0.88791932  0.60839468    -0.79200
O872        O  0.01814741  0.91112701  0.54604774    -1.15400
O873        O  0.04251513  0.84417158  0.56199862    -0.74600
C874        C  0.05268449  0.83252999  0.53561284     0.96200
C875        C  0.00096784  0.98302414  0.50821560     0.92600
Al876      Al  0.02183217  0.95682391  0.56427189     1.55600
O877        O  0.98649084  0.88743302  0.49412416    -0.79200
C878        C  0.05030534  0.91109237  0.61204827     0.96700
C879        C  0.07900848  0.95752351  0.51852329     0.91600
O880        O  0.07511898  0.92242905  0.51255537    -0.84500
O881        O  0.07621549  0.52664876  0.01084362    -0.84000
C882        C  0.16871366  0.94784394  0.08624446     0.95400
O883        O  0.16434845  0.98161200  0.07627668    -0.73100
O884        O  0.14317705  0.53231633  0.03283587    -0.76700
Al885      Al  0.12086579  0.50663845  0.06846465     1.49000
C886        C  0.14850867  0.52229733  0.00445518     0.90700
O887        O  0.10777121  0.92272301  0.99335064    -0.82900
O888        O  0.06244570  0.90491386  0.03952830    -0.76400
Al889      Al  0.09336045  0.97379692  0.00586313     1.90100
O890        O  0.13187207  0.89950127  0.03620413    -0.75500
O891        O  0.06939447  0.93991316  0.09355671    -0.75400
O892        O  0.14222931  0.92713417  0.09164099    -0.81000
O893        O  0.09844577  0.99072431  0.10839635    -0.79200
O894        O  0.10526145  0.96751293  0.04605062    -1.15400
O895        O  0.08090343  0.53447417  0.06200557    -0.74600
C896        C  0.07072186  0.54611157  0.03562120     0.96200
C897        C  0.12243158  0.89561378  0.00821908     0.92600
Al898      Al  0.10157749  0.92181678  0.06427769     1.55600
O899        O  0.13690351  0.49120672  0.99411827    -0.79200
C900        C  0.07311602  0.96755765  0.11205255     0.96700
C901        C  0.04439299  0.92111328  0.01853791     0.91600
O902        O  0.04828081  0.95620848  0.01257103    -0.84500
O903        O  0.04708696  0.52643512  0.24119575    -0.84000
C904        C  0.45460233  0.94763586  0.16579407     0.95400
O905        O  0.45894784  0.98139376  0.17578843    -0.73100
O906        O  0.48010919  0.53209227  0.21922671    -0.76700
Al907      Al  0.00240872  0.50644553  0.18359073     1.49000
C908        C  0.47478755  0.52205965  0.24760265     0.90700
O909        O  0.01553329  0.92248681  0.25865192    -0.82900
O910        O  0.06091231  0.90472820  0.21247263    -0.76400
Al911      Al  0.02994474  0.97357236  0.24617080     1.90100
O912        O  0.99149792  0.89924598  0.21577050    -0.75500
O913        O  0.05394810  0.93983562  0.15845539    -0.75400
O914        O  0.48109969  0.92695219  0.16036911    -0.81000
O915        O  0.02480512  0.99059353  0.14364747    -0.79200
O916        O  0.01804658  0.96731141  0.20598234    -1.15400
O917        O  0.04235496  0.53429192  0.19003846    -0.74600
C918        C  0.05255907  0.54591192  0.21641808     0.96200
C919        C  0.00089983  0.89536977  0.24376818     0.92600
Al920      Al  0.02177197  0.92164135  0.18772106     1.55600
O921        O  0.98639697  0.49096567  0.25792562    -0.79200
C922        C  0.05018676  0.96750500  0.13998516     0.96700
C923        C  0.07893163  0.92090592  0.23349853     0.91600
O924        O  0.07503236  0.95599540  0.23947549    -0.84500
O925        O  0.42322251  0.79750559  0.26253345    -0.84000
C926        C  0.04369715  0.80589319  0.33617130     0.95400
O927        O  0.01721308  0.82660350  0.34157094    -0.73100
O928        O  0.50678169  0.85424663  0.28615246    -0.76700
Al929      Al  0.47652554  0.83189550  0.31424073     1.49000
C930        C  0.49734964  0.85812422  0.25816394     0.90700
O931        O  0.51184564  0.76252862  0.24403680    -0.82900
O932        O  0.45591157  0.71924188  0.31196089    -0.76400
Al933      Al  0.46830357  0.77992919  0.25581024     1.90100
O934        O  0.01815918  0.72143356  0.28275839    -0.75500
O935        O  0.47348575  0.76296670  0.35834596    -0.75400
O936        O  0.03933636  0.77213335  0.32618734    -0.81000
O937        O  0.44437429  0.81375597  0.34355596    -0.79200
O938        O  0.48022522  0.78621176  0.29599682    -1.15400
O939        O  0.43736955  0.84878680  0.28951122    -0.74600
C940        C  0.41933346  0.83259879  0.26850302     0.96200
C941        C  0.02347797  0.73145197  0.25437787     0.92600
Al942      Al  0.49586564  0.74708956  0.31839592     1.55600
O943        O  0.48269768  0.83100912  0.24329564    -0.79200
C944        C  0.44814268  0.78610044  0.36204089     0.96700
C945        C  0.44571204  0.70760514  0.28558358     0.91600
O946        O  0.45117517  0.72707318  0.26080222    -0.84500
O947        O  0.45013812  0.79741228  0.48952671    -0.84000
C948        C  0.32968553  0.80580729  0.41585596     0.95400
O949        O  0.35616715  0.82652500  0.41046927    -0.73100
O950        O  0.36656051  0.85412912  0.46590267    -0.76700
Al951      Al  0.39683835  0.83181759  0.43781562     1.49000
C952        C  0.37599901  0.85801147  0.49388809     0.90700
O953        O  0.36151288  0.76242194  0.50798005    -0.82900
O954        O  0.41748662  0.71916926  0.44006939    -0.76400
Al955      Al  0.40505653  0.77982746  0.49623057     1.90100
O956        O  0.35522333  0.72133108  0.46925157    -0.75500
O957        O  0.39992207  0.76291815  0.39368636    -0.75400
O958        O  0.33405057  0.77204195  0.42582804    -0.81000
O959        O  0.42900399  0.81371791  0.40850321    -0.79200
O960        O  0.39314966  0.78612319  0.45604107    -1.15400
O961        O  0.43598255  0.84870339  0.46256102    -0.74600
C962        C  0.45402447  0.83250852  0.48356238     0.96200
C963        C  0.34989093  0.73134476  0.49763266     0.92600
Al964      Al  0.37752728  0.74700848  0.43362592     1.55600
O965        O  0.39065566  0.83089905  0.50875531    -0.79200
C966        C  0.42525011  0.78607726  0.39000214     0.96700
C967        C  0.42766805  0.70752004  0.46644981     0.91600
O968        O  0.42218957  0.72697570  0.49123319    -0.84500
O969        O  0.29723113  0.52658214  0.74119212    -0.84000
C970        C  0.20472049  0.94778308  0.66579501     0.95400
O971        O  0.20908413  0.98154748  0.67577068    -0.73100
O972        O  0.23026444  0.53225349  0.71920826    -0.76700
Al973      Al  0.25256861  0.50657220  0.68357805     1.49000
C974        C  0.22493748  0.52223842  0.74759100     0.90700
O975        O  0.26567261  0.92265995  0.75869008    -0.82900
O976        O  0.31098694  0.90484242  0.71251019    -0.76400
Al977      Al  0.28008389  0.97373233  0.74617661     1.90100
O978        O  0.24155824  0.89944689  0.71583924    -0.75500
O979        O  0.30403596  0.93984434  0.65848766    -0.75400
O980        O  0.23120479  0.92707324  0.66039969    -0.81000
O981        O  0.27498002  0.99065248  0.64364577    -0.79200
O982        O  0.26817494  0.96744809  0.70599127    -1.15400
O983        O  0.29253328  0.53440448  0.69003050    -0.74600
C984        C  0.30271929  0.54604385  0.71641224     0.96200
C985        C  0.25101086  0.89555183  0.74382076     0.92600
Al986      Al  0.27185425  0.92175203  0.68776452     1.55600
O987        O  0.23654357  0.49114976  0.75792970    -0.79200
C988        C  0.30030796  0.96748532  0.63998872     0.96700
C989        C  0.32904727  0.92104259  0.73349399     0.91600
O990        O  0.32516184  0.95613797  0.73946104    -0.84500
O991        O  0.32628054  0.52632460  0.51083935    -0.84000
C992        C  0.41879706  0.94754132  0.58623229     0.95400
O993        O  0.41445082  0.98129280  0.57622533    -0.73100
O994        O  0.39327373  0.53198663  0.53278566    -0.76700
Al995      Al  0.37098851  0.50634702  0.56843098     1.49000
C996        C  0.39858042  0.52195647  0.50440767     0.90700
O997        O  0.35783047  0.92237682  0.49338929    -0.82900
O998        O  0.31246465  0.90461826  0.53958070    -0.76400
Al999      Al  0.34342280  0.97346335  0.50586561     1.90100
O1000       O  0.38188013  0.89914335  0.53626794    -0.75500
O1001       O  0.31945240  0.93974857  0.59358820    -0.75400
O1002       O  0.39229934  0.92685787  0.59166268    -0.81000
O1003       O  0.34860964  0.99050402  0.60838110    -0.79200
O1004       O  0.35533904  0.96720973  0.54605004    -1.15400
O1005       O  0.33104086  0.53419696  0.56199273    -0.74600
C1006       C  0.32082171  0.54580868  0.53561644     0.96200
C1007       C  0.37246478  0.89526091  0.50827487     0.92600
Al1008     Al  0.35161660  0.92154313  0.56432026     1.55600
O1009       O  0.38696604  0.49086307  0.49408816    -0.79200
C1010       C  0.32322498  0.96742186  0.61205261     0.96700
C1011       C  0.29443766  0.92079339  0.51855768     0.91600
O1012       O  0.29833745  0.95588449  0.51258126    -0.84500
O1013       O  0.17337716  0.79768708  0.76255095    -0.84000
C1014       C  0.29381544  0.80604751  0.83619967     0.95400
O1015       O  0.26733737  0.82676545  0.84160471    -0.73100
O1016       O  0.25695301  0.85439836  0.78617995    -0.76700
Al1017     Al  0.22666961  0.83207720  0.81426100     1.49000
C1018       C  0.24750538  0.85829289  0.75819772     0.90700
O1019       O  0.26200375  0.76269555  0.74407353    -0.82900
O1020       O  0.20600229  0.71942540  0.81197010    -0.76400
Al1021     Al  0.21845578  0.78010481  0.75583273     1.90100
O1022       O  0.26828177  0.72158754  0.78279126    -0.75500
O1023       O  0.22352751  0.76314663  0.85837389    -0.75400
O1024       O  0.28943976  0.77227877  0.82624322    -0.81000
O1025       O  0.19448965  0.81397655  0.84356458    -0.79200
O1026       O  0.23035561  0.78638459  0.79602414    -1.15400
O1027       O  0.18752941  0.84897781  0.78951868    -0.74600
C1028       C  0.16948970  0.83278265  0.76851717     0.96200
C1029       C  0.27361556  0.73160635  0.75440855     0.92600
Al1030     Al  0.24596056  0.74725560  0.81843088     1.55600
O1031       O  0.23285575  0.83118079  0.74332435    -0.79200
C1032       C  0.19819754  0.78631129  0.86204758     0.96700
C1033       C  0.19582800  0.70778821  0.78558571     0.91600
O1034       O  0.20131873  0.72725140  0.76080891    -0.84500
O1035       O  0.20008052  0.79774427  0.98947329    -0.84000
C1036       C  0.07963709  0.80610855  0.91583783     0.95400
O1037       O  0.10611684  0.82681882  0.91042609    -0.73100
O1038       O  0.11652053  0.85447450  0.96584359    -0.76700
Al1039     Al  0.14679165  0.83212731  0.93776254     1.49000
C1040       C  0.12595724  0.85835976  0.99383045     0.90700
O1041       O  0.11145458  0.76275731  0.00797198    -0.82900
O1042       O  0.16743196  0.71947440  0.94006557    -0.76400
Al1043     Al  0.15500214  0.78016510  0.99619996     1.90100
O1044       O  0.10516094  0.72165332  0.96925435    -0.75500
O1045       O  0.14990544  0.76318151  0.89366350    -0.75400
O1046       O  0.08400684  0.77234088  0.92580198    -0.81000
O1047       O  0.17896565  0.81400012  0.90845922    -0.79200
O1048       O  0.14309543  0.78644073  0.95601004    -1.15400
O1049       O  0.18593402  0.84902834  0.96249602    -0.74600
C1050       C  0.20396935  0.83283812  0.98350281     0.96200
C1051       C  0.09983162  0.73167269  0.99763702     0.92600
Al1052     Al  0.12747936  0.74730982  0.93361070     1.55600
O1053       O  0.14060383  0.83124570  0.00870354    -0.79200
C1054       C  0.17524831  0.78632692  0.88998595     0.96700
C1055       C  0.17761575  0.70783897  0.96644683     0.91600
O1056       O  0.17213627  0.72730861  0.99122428    -0.84500
O1057       O  0.32621156  0.77664926  0.01083162    -0.84000
C1058       C  0.41870619  0.69784552  0.08623476     0.95400
O1059       O  0.41434157  0.73161259  0.07626635    -0.73100
O1060       O  0.39317067  0.78231868  0.03282758    -0.76700
Al1061     Al  0.37085868  0.75663703  0.06845414     1.49000
C1062       C  0.39850684  0.77229994  0.00444685     0.90700
O1063       O  0.35777146  0.67272517  0.99333715    -0.82900
O1064       O  0.31244203  0.65491411  0.03951383    -0.76400
Al1065     Al  0.34335859  0.72379790  0.00584952     1.90100
O1066       O  0.38186843  0.64950405  0.03619285    -0.75500
O1067       O  0.31938575  0.68991165  0.09354480    -0.75400
O1068       O  0.39222172  0.67713473  0.09163016    -0.81000
O1069       O  0.34843883  0.74072041  0.10838601    -0.79200
O1070       O  0.35525630  0.71751268  0.04603831    -1.15400
O1071       O  0.33089529  0.78446811  0.06199464    -0.74600
C1072       C  0.32071707  0.79610810  0.03561158     0.96200
C1073       C  0.37242951  0.64561507  0.00820719     0.92600
Al1074     Al  0.35157166  0.67181705  0.06426520     1.55600
O1075       O  0.38690293  0.74121174  0.99410771    -0.79200
C1076       C  0.32311060  0.71755503  0.11204331     0.96700
C1077       C  0.29439102  0.67111122  0.01852215     0.91600
O1078       O  0.29827868  0.70620603  0.01255203    -0.84500
O1079       O  0.29708680  0.77643777  0.24119313    -0.84000
C1080       C  0.20459974  0.69763423  0.16579544     0.95400
O1081       O  0.20894730  0.73139425  0.17578766    -0.73100
O1082       O  0.23011043  0.78209401  0.21922284    -0.76700
Al1083     Al  0.25240919  0.75644535  0.18358809     1.49000
C1084       C  0.22478635  0.77206243  0.24759908     0.90700
O1085       O  0.26553389  0.67248922  0.25865367    -0.82900
O1086       O  0.31091563  0.65473114  0.21247353    -0.76400
Al1087     Al  0.27994456  0.72357500  0.24617034     1.90100
O1088       O  0.24150018  0.64924807  0.21577241    -0.75500
O1089       O  0.30394701  0.68983352  0.15845106    -0.75400
O1090       O  0.23109655  0.67694979  0.16037200    -0.81000
O1091       O  0.27480332  0.74059134  0.14364394    -0.79200
O1092       O  0.26804780  0.71731237  0.20598115    -1.15400
O1093       O  0.29235652  0.78429228  0.19003524    -0.74600
C1094       C  0.30256019  0.79591247  0.21641482     0.96200
C1095       C  0.25090181  0.64537217  0.24376979     0.92600
Al1096     Al  0.27177283  0.67164164  0.18772143     1.55600
O1097       O  0.23639582  0.74096831  0.25792273    -0.79200
C1098       C  0.30018341  0.71750093  0.13997860     0.96700
C1099       C  0.32893473  0.67090746  0.23350181     0.91600
O1100       O  0.32503286  0.70599789  0.23947891    -0.84500
O1101       O  0.20013597  0.54740253  0.48951996    -0.84000
C1102       C  0.07968159  0.55580138  0.41585347     0.95400
O1103       O  0.10616457  0.57651693  0.41046341    -0.73100
O1104       O  0.11656413  0.60413008  0.46589204    -0.76700
Al1105     Al  0.14683874  0.58180911  0.43780695     1.49000
C1106       C  0.12599988  0.60801425  0.49387767     0.90700
O1107       O  0.11150865  0.51242731  0.50797630    -0.82900
O1108       O  0.16748084  0.96916013  0.44007010    -0.76400
Al1109     Al  0.15505344  0.52982581  0.49622586     1.90100
O1110       O  0.10521912  0.97132931  0.46925303    -0.75500
O1111       O  0.14991717  0.51290397  0.39368165    -0.75400
O1112       O  0.08404675  0.52203572  0.42582598    -0.81000
O1113       O  0.17900238  0.56370204  0.40849527    -0.79200
O1114       O  0.14314680  0.53611741  0.45603615    -1.15400
O1115       O  0.18598582  0.59869258  0.46255090    -0.74600
C1116       C  0.20402516  0.58249729  0.48355341     0.96200
C1117       C  0.09988864  0.98134749  0.49763322     0.92600
Al1118     Al  0.12752243  0.49700082  0.43362430     1.55600
O1119       O  0.14065627  0.58090176  0.50874655    -0.79200
C1120       C  0.17524603  0.53606136  0.38999612     0.96700
C1121       C  0.17766357  0.95751386  0.46645038     0.91600
O1122       O  0.17218355  0.97697132  0.49123350    -0.84500
O1123       O  0.17322385  0.54750388  0.26252460    -0.84000
C1124       C  0.29369328  0.55588418  0.33616738     0.95400
O1125       O  0.26720917  0.57659212  0.34156882    -0.73100
O1126       O  0.25677894  0.60424602  0.28615389    -0.76700
Al1127     Al  0.22652221  0.58188776  0.31423778     1.49000
C1128       C  0.24735028  0.60812662  0.25816418     0.90700
O1129       O  0.26184806  0.51252941  0.24402775    -0.82900
O1130       O  0.20591047  0.96923786  0.31194618    -0.76400
Al1131     Al  0.21830514  0.52992958  0.25580149     1.90100
O1132       O  0.26815869  0.97143091  0.28274708    -0.75500
O1133       O  0.22348265  0.51295286  0.35833703    -0.75400
O1134       O  0.28933408  0.52212476  0.32618024    -0.81000
O1135       O  0.19436899  0.56374092  0.34354941    -0.79200
O1136       O  0.23022480  0.53620694  0.29598907    -1.15400
O1137       O  0.18736765  0.59878136  0.28950855    -0.74600
C1138       C  0.16933278  0.58259588  0.26849795     0.96200
C1139       C  0.27347947  0.98145236  0.25436717     0.92600
Al1140     Al  0.24586407  0.49708249  0.31838549     1.55600
O1141       O  0.23269987  0.58101096  0.24329324    -0.79200
C1142       C  0.19813742  0.53608532  0.36203211     0.96700
C1143       C  0.19571177  0.95760455  0.28556879     0.91600
O1144       O  0.20117565  0.97707227  0.26078796    -0.84500
O1145       O  0.04722809  0.77658385  0.74118873    -0.84000
C1146       C  0.45471235  0.69779094  0.66578814     0.95400
O1147       O  0.45907811  0.73155516  0.67576385    -0.73100
O1148       O  0.48026068  0.78225567  0.71920572    -0.76700
Al1149     Al  0.00256355  0.75658074  0.68357273     1.49000
C1150       C  0.47493679  0.77223814  0.74758796     0.90700
O1151       O  0.01567413  0.67265892  0.75867786    -0.82900
O1152       O  0.06098838  0.65485013  0.71249514    -0.76400
Al1153     Al  0.03008275  0.72373368  0.74616776     1.90100
O1154       O  0.99155965  0.64944767  0.71582675    -0.75500
O1155       O  0.05403009  0.68985695  0.65847378    -0.75400
O1156       O  0.48119723  0.67708096  0.66039117    -0.81000
O1157       O  0.02497500  0.74066758  0.64363752    -0.79200
O1158       O  0.01817171  0.71745403  0.70598222    -1.15400
O1159       O  0.04252789  0.78441568  0.69002817    -0.74600
C1160       C  0.05271653  0.79604892  0.71641080     0.96200
C1161       C  0.00101185  0.64555164  0.74380763     0.92600
Al1162     Al  0.02185166  0.67175983  0.68775212     1.55600
O1163       O  0.98654271  0.74114707  0.75792359    -0.79200
C1164       C  0.05030216  0.71749936  0.63997740     0.96700
C1165       C  0.07904823  0.67105003  0.73348068     0.91600
O1166       O  0.07516094  0.70614450  0.73944813    -0.84500
O1167       O  0.07627813  0.77633276  0.51082585    -0.84000
C1168       C  0.16878850  0.69754339  0.58621927     0.95400
O1169       O  0.16444679  0.73129488  0.57621010    -0.73100
O1170       O  0.14327234  0.78198862  0.53277022    -0.76700
Al1171     Al  0.12098671  0.75635236  0.56841671     1.49000
C1172       C  0.14857804  0.77195845  0.50439271     0.90700
O1173       O  0.10782527  0.67237905  0.49337808    -0.82900
O1174       O  0.06245831  0.65462969  0.53957130    -0.76400
Al1175     Al  0.09341848  0.72346901  0.50585217     1.90100
O1176       O  0.13187079  0.64914607  0.53625945    -0.75500
O1177       O  0.06944304  0.68976372  0.59357455    -0.75400
O1178       O  0.14229004  0.67686503  0.59165253    -0.81000
O1179       O  0.09860692  0.74051352  0.60836843    -0.79200
O1180       O  0.10533468  0.71721625  0.54603682    -1.15400
O1181       O  0.08104183  0.78420269  0.56197936    -0.74600
C1182       C  0.07082141  0.79581568  0.53560409     0.96200
C1183       C  0.12245929  0.64526307  0.50826423     0.92600
Al1184     Al  0.10160799  0.67155206  0.56430945     1.55600
O1185       O  0.13696183  0.74086490  0.49407308    -0.79200
C1186       C  0.07321811  0.71743683  0.61204002     0.96700
C1187       C  0.04443260  0.67080474  0.51854751     0.91600
O1188       O  0.04833311  0.70589426  0.51256905    -0.84500
O1189       O  0.42337442  0.54768610  0.76253212    -0.84000
C1190       C  0.04380351  0.55605246  0.83618983     0.95400
O1191       O  0.01732536  0.57676773  0.84159463    -0.73100
O1192       O  0.50694386  0.60440080  0.78617012    -0.76700
Al1193     Al  0.47665930  0.58207710  0.81424907     1.49000
C1194       C  0.49750196  0.60829275  0.75818607     0.90700
O1195       O  0.51200441  0.51269430  0.74406463    -0.82900
O1196       O  0.45599744  0.96942904  0.81196032    -0.76400
Al1197     Al  0.46845426  0.53010308  0.75581994     1.90100
O1198       O  0.01827822  0.97158825  0.78278405    -0.75500
O1199       O  0.47352005  0.51314925  0.85836338    -0.75400
O1200       O  0.03943083  0.52228220  0.82623363    -0.81000
O1201       O  0.44447700  0.56397397  0.84355145    -0.79200
O1202       O  0.48034939  0.53638523  0.79601239    -1.15400
O1203       O  0.43752210  0.59897473  0.78950467    -0.74600
C1204       C  0.41948503  0.58277980  0.76850092     0.96200
C1205       C  0.02361646  0.98160624  0.75440209     0.92600
Al1206     Al  0.49595413  0.49725792  0.81842128     1.55600
O1207       O  0.48285512  0.58118004  0.74331160    -0.79200
C1208       C  0.44818771  0.53631090  0.86203660     0.96700
C1209       C  0.44582530  0.95778646  0.78557678     0.91600
O1210       O  0.45131738  0.97724846  0.76079778    -0.84500
O1211       O  0.45007514  0.54774505  0.98946944    -0.84000
C1212       C  0.32962804  0.55609960  0.91583192     0.95400
O1213       O  0.35610752  0.57681318  0.91042069    -0.73100
O1214       O  0.36651379  0.60447135  0.96583590    -0.76700
Al1215     Al  0.39678490  0.58212445  0.93775541     1.49000
C1216       C  0.37595214  0.60836024  0.99382188     0.90700
O1217       O  0.36144860  0.51275784  0.00796543    -0.82900
O1218       O  0.41743180  0.96947267  0.94006386    -0.76400
Al1219     Al  0.40499652  0.53016608  0.99619492     1.90100
O1220       O  0.35516009  0.97164929  0.96925046    -0.75500
O1221       O  0.39990097  0.51317673  0.89365740    -0.75400
O1222       O  0.33400125  0.52233288  0.92579591    -0.81000
O1223       O  0.42895806  0.56399878  0.90845029    -0.79200
O1224       O  0.39309082  0.53643874  0.95600404    -1.15400
O1225       O  0.43593042  0.59902770  0.96248952    -0.74600
C1226       C  0.45396534  0.58283921  0.98349759     0.96200
C1227       C  0.34982964  0.98167110  0.99763240     0.92600
Al1228     Al  0.37747657  0.49730534  0.93360617     1.55600
O1229       O  0.39059815  0.58124662  0.00869631    -0.79200
C1230       C  0.42523992  0.53632429  0.88997637     0.96700
C1231       C  0.42761519  0.95784083  0.96644593     0.91600
O1232       O  0.42213222  0.97731051  0.99122262    -0.84500
O1233       O  0.42326473  0.83122914  0.98951588    -0.84000
C1234       C  0.04372790  0.82284070  0.91586007     0.95400
O1235       O  0.01724498  0.80212585  0.91046754    -0.73100
O1236       O  0.50683943  0.77450560  0.96589488    -0.76700
Al1237     Al  0.47656879  0.79683069  0.93780824     1.49000
C1238       C  0.49739799  0.77061951  0.99387945     0.90700
O1239       O  0.51188914  0.86621026  0.00798920    -0.82900
O1240       O  0.45593085  0.90947902  0.94007356    -0.76400
Al1241     Al  0.46834621  0.84880848  0.99622933     1.90100
O1242       O  0.01818691  0.90730712  0.96926608    -0.75500
O1243       O  0.47350177  0.86573964  0.89368788    -0.75400
O1244       O  0.03936503  0.85660223  0.92583891    -0.81000
O1245       O  0.44440929  0.81494389  0.90849603    -0.79200
O1246       O  0.48026013  0.84252016  0.95604127    -1.15400
O1247       O  0.43741866  0.77994184  0.96254652    -0.74600
C1248       C  0.41937632  0.79613450  0.98354762     0.96200
C1249       C  0.02351236  0.89728895  0.99764690     0.92600
Al1250     Al  0.49588933  0.88163854  0.93363357     1.55600
O1251       O  0.48274287  0.79773159  0.00874842    -0.79200
C1252       C  0.44817130  0.84258644  0.88999945     0.96700
C1253       C  0.44573979  0.92112251  0.96645181     0.91600
O1254       O  0.45121497  0.90166215  0.99123567    -0.84500
O1255       O  0.45018920  0.83116938  0.76252277    -0.84000
C1256       C  0.32972568  0.82277824  0.83617427     0.95400
O1257       O  0.35621021  0.80206835  0.84157031    -0.73100
O1258       O  0.36663723  0.77442213  0.78615185    -0.76700
Al1259     Al  0.39689531  0.79677698  0.81423701     1.49000
C1260       C  0.37606418  0.77054684  0.75816081     0.90700
O1261       O  0.36156302  0.86614279  0.74403893    -0.82900
O1262       O  0.41751012  0.90942830  0.81195237    -0.76400
Al1263     Al  0.40510732  0.84874330  0.75580496     1.90100
O1264       O  0.35525832  0.90723929  0.78276040    -0.75500
O1265       O  0.39993948  0.86570577  0.85834211    -0.75400
O1266       O  0.33408577  0.85654031  0.82619081    -0.81000
O1267       O  0.42904959  0.81491780  0.84354887    -0.79200
O1268       O  0.39319205  0.84246064  0.79599324    -1.15400
O1269       O  0.43604791  0.77988894  0.78950525    -0.74600
C1270       C  0.45408106  0.79607716  0.76849425     0.96200
C1271       C  0.34993424  0.89721952  0.75438111     0.92600
Al1272     Al  0.37755598  0.88158276  0.81839408     1.55600
O1273       O  0.39071278  0.79766331  0.74329236    -0.79200
C1274       C  0.42528176  0.84257103  0.86203507     0.96700
C1275       C  0.42770470  0.92106605  0.78557347     0.91600
O1276       O  0.42223577  0.90159920  0.76079266    -0.84500
O1277       O  0.04711660  0.60230279  0.01083612    -0.84000
C1278       C  0.45460943  0.68109600  0.08622653     0.95400
O1279       O  0.45895515  0.64734084  0.07622449    -0.73100
O1280       O  0.48012837  0.59664291  0.03278801    -0.76700
Al1281     Al  0.00241769  0.62228799  0.06843006     1.49000
C1282       C  0.47481604  0.60667283  0.00440886     0.90700
O1283       O  0.01556436  0.70625145  0.99337815    -0.82900
O1284       O  0.06093211  0.72401172  0.03956456    -0.76400
Al1285     Al  0.02997341  0.65516467  0.00585829     1.90100
O1286       O  0.99151508  0.72948322  0.03625669    -0.75500
O1287       O  0.05395354  0.68889524  0.09357694    -0.75400
O1288       O  0.48110616  0.70177826  0.09165499    -0.81000
O1289       O  0.02480281  0.63813905  0.10837833    -0.79200
O1290       O  0.01806291  0.66142244  0.04604392    -1.15400
O1291       O  0.04236538  0.59443992  0.06199152    -0.74600
C1292       C  0.05258163  0.58282345  0.03561430     0.96200
C1293       C  0.00093019  0.73336775  0.00826339     0.92600
Al1294     Al  0.02178445  0.70709150  0.06430866     1.55600
O1295       O  0.98642893  0.63776616  0.99408850    -0.79200
C1296       C  0.05018409  0.66122549  0.11204598     0.96700
C1297       C  0.07895890  0.70783448  0.01854211     0.91600
O1298       O  0.07505920  0.67274368  0.01256683    -0.84500
O1299       O  0.07618075  0.60209101  0.24119220    -0.84000
C1300       C  0.16869609  0.68088624  0.16579424     0.95400
O1301       O  0.16433035  0.64712256  0.17577034    -0.73100
O1302       O  0.14314953  0.59642096  0.21921071    -0.76700
Al1303     Al  0.12084603  0.62209660  0.18357816     1.49000
C1304       C  0.14847451  0.60643616  0.24759403     0.90700
O1305       O  0.10773623  0.70601537  0.25868287    -0.82900
O1306       O  0.06242029  0.72382762  0.21250025    -0.76400
Al1307     Al  0.09332640  0.65494160  0.24617313     1.90100
O1308       O  0.13184902  0.72922692  0.21583060    -0.75500
O1309       O  0.06937675  0.68881807  0.15847700    -0.75400
O1310       O  0.14221117  0.70159601  0.16039574    -0.81000
O1311       O  0.09843438  0.63800860  0.14364294    -0.79200
O1312       O  0.10523697  0.66122255  0.20598731    -1.15400
O1313       O  0.08088275  0.59426257  0.19003161    -0.74600
C1314       C  0.07069532  0.58262629  0.21641428     0.96200
C1315       C  0.12239805  0.73312261  0.24381167     0.92600
Al1316     Al  0.10155641  0.70691649  0.18775635     1.55600
O1317       O  0.13686658  0.63752604  0.25793040    -0.79200
C1318       C  0.07310481  0.66117319  0.13998302     0.96700
C1319       C  0.04436209  0.70762829  0.23348703     0.91600
O1320       O  0.04824821  0.67253379  0.23945423    -0.84500
O1321       O  0.20003899  0.83098508  0.26253676    -0.84000
C1322       C  0.07960770  0.82262353  0.33619470     0.95400
O1323       O  0.10608523  0.80190587  0.34159715    -0.73100
O1324       O  0.11646285  0.77427546  0.28617137    -0.76700
Al1325     Al  0.14674996  0.79659379  0.31425006     1.49000
C1326       C  0.12590778  0.77038102  0.25818856     0.90700
O1327       O  0.11141070  0.86597589  0.24406728    -0.82900
O1328       O  0.16741979  0.90924109  0.31195924    -0.76400
Al1329     Al  0.15495981  0.84856748  0.25582198     1.90100
O1330       O  0.10513802  0.90708350  0.28278581    -0.75500
O1331       O  0.14989643  0.86552066  0.35836395    -0.75400
O1332       O  0.08398244  0.85639337  0.32623749    -0.81000
O1333       O  0.17893311  0.81469195  0.34355061    -0.79200
O1334       O  0.14306352  0.84228629  0.29601430    -1.15400
O1335       O  0.18588682  0.77969424  0.28950558    -0.74600
C1336       C  0.20392802  0.79589018  0.26850434     0.96200
C1337       C  0.09980053  0.89706384  0.25440450     0.92600
Al1338     Al  0.12746161  0.88141441  0.31842279     1.55600
O1339       O  0.14055852  0.79749141  0.24331440    -0.79200
C1340       C  0.17522546  0.84235459  0.36203645     0.96700
C1341       C  0.17759021  0.92088406  0.28557476     0.91600
O1342       O  0.17209643  0.90142091  0.26079656    -0.84500
O1343       O  0.17331702  0.83088526  0.48945242    -0.84000
C1344       C  0.29377538  0.82253752  0.41583771     0.95400
O1345       O  0.26729592  0.80182725  0.41041986    -0.73100
O1346       O  0.25687775  0.77415454  0.46582992    -0.76700
Al1347     Al  0.22661432  0.79651304  0.43774862     1.49000
C1348       C  0.24743714  0.77026366  0.49381500     0.90700
O1349       O  0.26194040  0.86586922  0.50797964    -0.82900
O1350       O  0.20597812  0.90916582  0.44006687    -0.76400
Al1351     Al  0.21839428  0.84846140  0.49619328     1.90100
O1352       O  0.26824300  0.90697799  0.46926636    -0.75500
O1353       O  0.22351430  0.86547133  0.39366132    -0.75400
O1354       O  0.28940461  0.85630066  0.42580876    -0.81000
O1355       O  0.19444752  0.81465172  0.40844439    -0.79200
O1356       O  0.23031021  0.84219481  0.45600494    -1.15400
O1357       O  0.18746490  0.77960460  0.46247335    -0.74600
C1358       C  0.16942710  0.79579358  0.48347974     0.96200
C1359       C  0.27356637  0.89695453  0.49764902     0.92600
Al1360     Al  0.24593164  0.88133125  0.43361496     1.55600
O1361       O  0.23278915  0.79737715  0.50868997    -0.79200
C1362       C  0.19817032  0.84233019  0.38997638     0.96700
C1363       C  0.19578682  0.92079359  0.46644726     0.91600
O1364       O  0.20126109  0.90131917  0.49122316    -0.84500
O1365       O  0.32632875  0.60223542  0.74119130    -0.84000
C1366       C  0.41880876  0.68104094  0.66578895     0.95400
O1367       O  0.41446362  0.64728107  0.67578096    -0.73100
O1368       O  0.39330541  0.59657923  0.71921805    -0.76700
Al1369     Al  0.37100380  0.62222647  0.68358395     1.49000
C1370       C  0.39862828  0.60661038  0.74759368     0.90700
O1371       O  0.35788178  0.70618288  0.75864717    -0.82900
O1372       O  0.31249364  0.72393973  0.71246736    -0.76400
Al1373     Al  0.34347076  0.65509786  0.74616608     1.90100
O1374       O  0.38190640  0.72943082  0.71576339    -0.75500
O1375       O  0.31945915  0.68883087  0.65844599    -0.75400
O1376       O  0.39231097  0.70172353  0.66036405    -0.81000
O1377       O  0.34860618  0.63807539  0.64364074    -0.79200
O1378       O  0.35536461  0.66135995  0.70597637    -1.15400
O1379       O  0.33105882  0.59437727  0.69003380    -0.74600
C1380       C  0.32085578  0.58275796  0.71641389     0.96200
C1381       C  0.37251043  0.73330326  0.74376232     0.92600
Al1382     Al  0.35163485  0.70702975  0.68771416     1.55600
O1383       O  0.38702039  0.63770475  0.75791713    -0.79200
C1384       C  0.32322196  0.66115940  0.63997625     0.96700
C1385       C  0.29447958  0.70776402  0.73349950     0.91600
O1386       O  0.29838196  0.67267425  0.73947657    -0.84500
O1387       O  0.29718684  0.60198034  0.51083868    -0.84000
C1388       C  0.20469130  0.68079173  0.58623421     0.95400
O1389       O  0.20905718  0.64702179  0.57627098    -0.73100
O1390       O  0.23022851  0.59631174  0.53283575    -0.76700
Al1391     Al  0.25254200  0.62199808  0.56846073     1.49000
C1392       C  0.22489299  0.60632983  0.50445433     0.90700
O1393       O  0.26562493  0.70590133  0.49333386    -0.82900
O1394       O  0.31094954  0.72372079  0.53950591    -0.76400
Al1395     Al  0.28003959  0.65483046  0.50585214     1.90100
O1396       O  0.24151995  0.72912009  0.53618585    -0.75500
O1397       O  0.30400968  0.68873684  0.59354143    -0.75400
O1398       O  0.23117499  0.70150257  0.59162805    -0.81000
O1399       O  0.27496549  0.63792380  0.60838995    -0.79200
O1400       O  0.26814221  0.66111991  0.54604044    -1.15400
O1401       O  0.29250564  0.59416489  0.56200259    -0.74600
C1402       C  0.30268334  0.58252158  0.53561979     0.96200
C1403       C  0.25096136  0.73300986  0.50820036     0.92600
Al1404     Al  0.27182176  0.70681948  0.56426038     1.55600
O1405       O  0.23649647  0.63741725  0.49411416    -0.79200
C1406       C  0.30029132  0.66109704  0.61204422     0.96700
C1407       C  0.32900489  0.70752029  0.51851830     0.91600
O1408       O  0.32511931  0.67242473  0.51255215    -0.84500
O1409       O  0.92331682  0.08088637  0.48946517    -0.84000
C1410       C  0.54377125  0.07253257  0.41583799     0.95400
O1411       O  0.51729166  0.05182132  0.41042550    -0.73100
O1412       O  0.00688150  0.02416344  0.46584159    -0.76700
Al1413     Al  0.97661327  0.04651099  0.43775896     1.49000
C1414       C  0.99744232  0.02027585  0.49382860     0.90700
O1415       O  0.01193908  0.11587968  0.50797637    -0.82900
O1416       O  0.95597389  0.15916525  0.44006472    -0.76400
Al1417     Al  0.96839426  0.09846864  0.49619773     1.90100
O1418       O  0.51823978  0.15698214  0.46925827    -0.75500
O1419       O  0.97350715  0.11546058  0.39366386    -0.75400
O1420       O  0.53940121  0.10629697  0.42580639    -0.81000
O1421       O  0.94444272  0.06464150  0.40845357    -0.79200
O1422       O  0.98030728  0.09219604  0.45600894    -1.15400
O1423       O  0.93746740  0.02960409  0.46248899    -0.74600
C1424       C  0.91942925  0.04579246  0.48349479     0.96200
C1425       C  0.52356322  0.14696413  0.49764163     0.92600
Al1426     Al  0.99592709  0.13132863  0.43361280     1.55600
O1427       O  0.98279340  0.04738914  0.50870068    -0.79200
C1428       C  0.94816377  0.09231833  0.38998203     0.96700
C1429       C  0.94578622  0.17079645  0.46644534     0.91600
O1430       O  0.95125919  0.15132381  0.49122190    -0.84500
O1431       O  0.95004465  0.08098342  0.26254670    -0.84000
C1432       C  0.82960430  0.07261536  0.33619226     0.95400
O1433       O  0.85608103  0.05189620  0.34159500    -0.73100
O1434       O  0.86646294  0.02427548  0.28616625    -0.76700
Al1435     Al  0.89674755  0.04658741  0.31425038     1.49000
C1436       C  0.87591154  0.02038342  0.25818392     0.90700
O1437       O  0.86142019  0.11598119  0.24406778    -0.82900
O1438       O  0.91741818  0.15923977  0.31197148    -0.76400
Al1439     Al  0.90496678  0.09856903  0.25582775     1.90100
O1440       O  0.85513867  0.15708157  0.28279059    -0.75500
O1441       O  0.89989080  0.11550911  0.35836972    -0.75400
O1442       O  0.83397947  0.10638476  0.32623737    -0.81000
O1443       O  0.92892708  0.06467956  0.34355625    -0.79200
O1444       O  0.89306457  0.09228314  0.29601824    -1.15400
O1445       O  0.93588646  0.02968923  0.28950840    -0.74600
C1446       C  0.95393029  0.04588731  0.26851050     0.96200
C1447       C  0.84980413  0.14706701  0.25440622     0.92600
Al1448     Al  0.87745938  0.13140852  0.31842821     1.55600
O1449       O  0.89056548  0.04749450  0.24331355    -0.79200
C1450       C  0.92521822  0.09234063  0.36204298     0.96700
C1451       C  0.92759199  0.17088289  0.28558862     0.91600
O1452       O  0.92210370  0.15142148  0.26080970    -0.84500
O1453       O  0.79711327  0.35230288  0.01083084    -0.84000
C1454       C  0.70461645  0.43109376  0.08623307     0.95400
O1455       O  0.70896127  0.39733874  0.07623089    -0.73100
O1456       O  0.73013058  0.34664214  0.03279178    -0.76700
Al1457     Al  0.75242282  0.37228579  0.06843136     1.49000
C1458       C  0.72481701  0.35667318  0.00441443     0.90700
O1459       O  0.76556210  0.45625050  0.99338015    -0.82900
O1460       O  0.81093602  0.47400827  0.03956331    -0.76400
Al1461     Al  0.77997140  0.40516449  0.00585781     1.90100
O1462       O  0.74152002  0.47948565  0.03626078    -0.75500
O1463       O  0.80396204  0.43888940  0.09357433    -0.75400
O1464       O  0.73111471  0.45177618  0.09165932    -0.81000
O1465       O  0.77481112  0.38813425  0.10837731    -0.79200
O1466       O  0.76806584  0.41142124  0.04604444    -1.15400
O1467       O  0.79236970  0.34443850  0.06198667    -0.74600
C1468       C  0.80257990  0.33282224  0.03560822     0.96200
C1469       C  0.75092962  0.48336660  0.00826605     0.92600
Al1470     Al  0.77179062  0.45708911  0.06431008     1.55600
O1471       O  0.73642552  0.38776859  0.99409387    -0.79200
C1472       C  0.80019357  0.41121915  0.11204336     0.96700
C1473       C  0.82895893  0.45783170  0.01853901     0.91600
O1474       O  0.82505836  0.42274153  0.01256196    -0.84500
O1475       O  0.82618302  0.35209265  0.24118826    -0.84000
C1476       C  0.91869991  0.43088470  0.16579179     0.95400
O1477       O  0.91433664  0.39712191  0.17577053    -0.73100
O1478       O  0.89315445  0.34642084  0.21921239    -0.76700
Al1479     Al  0.87085314  0.37209483  0.18357685     1.49000
C1480       C  0.89847654  0.35643808  0.24759544     0.90700
O1481       O  0.85773873  0.45601845  0.25867582    -0.82900
O1482       O  0.81242445  0.47382859  0.21249191    -0.76400
Al1483     Al  0.84332893  0.40494373  0.24616807     1.90100
O1484       O  0.88185225  0.47923075  0.21582384    -0.75500
O1485       O  0.81938335  0.43881298  0.15847287    -0.75400
O1486       O  0.89221546  0.45159229  0.16039033    -0.81000
O1487       O  0.84844428  0.38800479  0.14364028    -0.79200
O1488       O  0.85524235  0.41122230  0.20598351    -1.15400
O1489       O  0.83088980  0.34425997  0.19002855    -0.74600
C1490       C  0.82069907  0.33262642  0.21641085     0.96200
C1491       C  0.87240099  0.48312542  0.24380524     0.92600
Al1492     Al  0.85156116  0.45691538  0.18775016     1.55600
O1493       O  0.88686838  0.38752864  0.25792937    -0.79200
C1494       C  0.82311333  0.41116772  0.13997919     0.96700
C1495       C  0.79436494  0.45762983  0.23347725     0.91600
O1496       O  0.79825133  0.42253468  0.23944497    -0.84500
O1497       O  0.70018766  0.08117142  0.76252316    -0.84000
C1498       C  0.57971285  0.07278361  0.83616352     0.95400
O1499       O  0.60619712  0.05207298  0.84156080    -0.73100
O1500       O  0.61662313  0.02443575  0.78613974    -0.76700
Al1501     Al  0.64688181  0.04678015  0.81422857     1.49000
C1502       C  0.62605897  0.02055375  0.75815196     0.90700
O1503       O  0.61156622  0.11615240  0.74402770    -0.82900
O1504       O  0.66750075  0.15943137  0.81195415    -0.76400
Al1505     Al  0.65510730  0.09874938  0.75580041     1.90100
O1506       O  0.60525332  0.15724531  0.78275065    -0.75500
O1507       O  0.64992491  0.11570288  0.85833765    -0.75400
O1508       O  0.58407371  0.10654385  0.82617819    -0.81000
O1509       O  0.67903395  0.06491364  0.84354365    -0.79200
O1510       O  0.64318474  0.09246540  0.79598690    -1.15400
O1511       O  0.68603643  0.02988942  0.78949920    -0.74600
C1512       C  0.70407604  0.04607791  0.76849347     0.96200
C1513       C  0.59993432  0.14722725  0.75437004     0.92600
Al1514     Al  0.62754574  0.13158583  0.81838768     1.55600
O1515       O  0.64071223  0.04767003  0.74328387    -0.79200
C1516       C  0.67526527  0.09256503  0.86203166     0.96700
C1517       C  0.67770297  0.17106931  0.78557749     0.91600
O1518       O  0.67223769  0.15160430  0.76079491    -0.84500
O1519       O  0.67326026  0.08122505  0.98951688    -0.84000
C1520       C  0.79371743  0.07282920  0.91585255     0.95400
O1521       O  0.76723434  0.05211315  0.91046333    -0.73100
O1522       O  0.75682846  0.02449728  0.96589148    -0.76700
Al1523     Al  0.72655747  0.04682210  0.93780491     1.49000
C1524       C  0.74739233  0.02061555  0.99387752     0.90700
O1525       O  0.76188713  0.11620656  0.00797896    -0.82900
O1526       O  0.70591963  0.15947182  0.94006908    -0.76400
Al1527     Al  0.71834241  0.09880429  0.99622510     1.90100
O1528       O  0.76817980  0.15730065  0.96925331    -0.75500
O1529       O  0.72348649  0.11573076  0.89368257    -0.75400
O1530       O  0.78935284  0.10659346  0.92582733    -0.81000
O1531       O  0.69439605  0.06493432  0.90849196    -0.79200
O1532       O  0.73025113  0.09251301  0.95603577    -1.15400
O1533       O  0.68740916  0.02993687  0.96254626    -0.74600
C1534       C  0.66937129  0.04613151  0.98355089     0.96200
C1535       C  0.77350836  0.14728400  0.99763390     0.92600
Al1536     Al  0.74587781  0.13163007  0.93362503     1.55600
O1537       O  0.73273921  0.04772942  0.00874608    -0.79200
C1538       C  0.69815530  0.09257801  0.88999528     0.96700
C1539       C  0.69573512  0.17111735  0.96644915     0.91600
O1540       O  0.70121205  0.15165754  0.99123183    -0.84500
O1541       O  0.57633341  0.35223550  0.74119566    -0.84000
C1542       C  0.66881797  0.43103177  0.66579588     0.95400
O1543       O  0.66447444  0.39727528  0.67579212    -0.73100
O1544       O  0.64331258  0.34657676  0.71923133    -0.76700
Al1545     Al  0.62101468  0.37222232  0.68359249     1.49000
C1546       C  0.64863334  0.35661249  0.74760645     0.90700
O1547       O  0.60788718  0.45618706  0.75864773    -0.82900
O1548       O  0.56250332  0.47393955  0.71246688    -0.76400
Al1549     Al  0.59347685  0.40509947  0.74617010     1.90100
O1550       O  0.63191779  0.47942749  0.71576383    -0.75500
O1551       O  0.56947102  0.43882382  0.65845002    -0.75400
O1552       O  0.64232100  0.45171395  0.66036666    -0.81000
O1553       O  0.59862098  0.38806973  0.64364616    -0.79200
O1554       O  0.60537426  0.41135758  0.70598130    -1.15400
O1555       O  0.58106872  0.34437632  0.69003876    -0.74600
C1556       C  0.57086019  0.33275979  0.71641691     0.96200
C1557       C  0.62251601  0.48330650  0.74376069     0.92600
Al1558     Al  0.60164578  0.45702546  0.68771620     1.55600
O1559       O  0.63702618  0.38770646  0.75792669    -0.79200
C1560       C  0.57323584  0.41115376  0.63998198     0.96700
C1561       C  0.54448609  0.45776396  0.73349706     0.91600
O1562       O  0.54838858  0.42267532  0.73947601    -0.84500
O1563       O  0.54718245  0.35198966  0.51083433    -0.84000
C1564       C  0.95470082  0.43079339  0.58624716     0.95400
O1565       O  0.95906819  0.39702280  0.57628442    -0.73100
O1566       O  0.98023270  0.34632030  0.53284209    -0.76700
Al1567     Al  0.50255148  0.37200157  0.56846614     1.49000
C1568       C  0.97489154  0.35634231  0.50446243     0.90700
O1569       O  0.51562651  0.45591387  0.49334577    -0.82900
O1570       O  0.56095938  0.47372349  0.53951627    -0.76400
Al1571     Al  0.53003791  0.40484154  0.50585745     1.90100
O1572       O  0.49153147  0.47913467  0.53620153    -0.75500
O1573       O  0.55402151  0.43873415  0.59354956    -0.75400
O1574       O  0.98118436  0.45150578  0.59163961    -0.81000
O1575       O  0.52497937  0.38791930  0.60839468    -0.79200
O1576       O  0.51814748  0.41112683  0.54604773    -1.15400
O1577       O  0.54251520  0.34417160  0.56199863    -0.74600
C1578       C  0.55268464  0.33252990  0.53561287     0.96200
C1579       C  0.50096809  0.48302405  0.50821531     0.92600
Al1580     Al  0.52183216  0.45682388  0.56427188     1.55600
O1581       O  0.48649080  0.38743279  0.49412411    -0.79200
C1582       C  0.55030531  0.41109233  0.61204828     0.96700
C1583       C  0.57900885  0.45752353  0.51852306     0.91600
O1584       O  0.57511901  0.42242903  0.51255538    -0.84500
O1585       O  0.57621553  0.02664871  0.01084355    -0.84000
C1586       C  0.66871314  0.44784412  0.08624439     0.95400
O1587       O  0.66434861  0.48161189  0.07627674    -0.73100
O1588       O  0.64317706  0.03231635  0.03283579    -0.76700
Al1589     Al  0.62086572  0.00663840  0.06846467     1.49000
C1590       C  0.64850862  0.02229729  0.00445519     0.90700
O1591       O  0.60777124  0.42272294  0.99335066    -0.82900
O1592       O  0.56244582  0.40491382  0.03952820    -0.76400
Al1593     Al  0.59336047  0.47379698  0.00586315     1.90100
O1594       O  0.63187219  0.39950121  0.03620406    -0.75500
O1595       O  0.56939448  0.43991306  0.09355678    -0.75400
O1596       O  0.64222942  0.42713425  0.09164102    -0.81000
O1597       O  0.59844558  0.49072421  0.10839643    -0.79200
O1598       O  0.60526155  0.46751292  0.04605064    -1.15400
O1599       O  0.58090339  0.03447413  0.06200553    -0.74600
C1600       C  0.57072189  0.04611149  0.03562127     0.96200
C1601       C  0.62243157  0.39561412  0.00821913     0.92600
Al1602     Al  0.60157758  0.42181678  0.06427765     1.55600
O1603       O  0.63690355  0.99120674  0.99411825    -0.79200
C1604       C  0.57311644  0.46755783  0.11205239     0.96700
C1605       C  0.54439323  0.42111358  0.01853791     0.91600
O1606       O  0.54828075  0.45620829  0.01257100    -0.84500
O1607       O  0.54708700  0.02643514  0.24119575    -0.84000
C1608       C  0.95460282  0.44763577  0.16579403     0.95400
O1609       O  0.95894775  0.48139378  0.17578842    -0.73100
O1610       O  0.98010902  0.03209224  0.21922682    -0.76700
Al1611     Al  0.50240869  0.00644551  0.18359073     1.49000
C1612       C  0.97478782  0.02205939  0.24760248     0.90700
O1613       O  0.51553326  0.42248674  0.25865187    -0.82900
O1614       O  0.56091200  0.40472818  0.21247247    -0.76400
Al1615     Al  0.52994472  0.47357243  0.24617080     1.90100
O1616       O  0.49149786  0.39924602  0.21577044    -0.75500
O1617       O  0.55394801  0.43983556  0.15845544    -0.75400
O1618       O  0.98109935  0.42695222  0.16036911    -0.81000
O1619       O  0.52480500  0.49059363  0.14364756    -0.79200
O1620       O  0.51804659  0.46731142  0.20598230    -1.15400
O1621       O  0.54235497  0.03429194  0.19003844    -0.74600
C1622       C  0.55255911  0.04591193  0.21641812     0.96200
C1623       C  0.50090001  0.39536989  0.24376840     0.92600
Al1624     Al  0.52177201  0.42164130  0.18772107     1.55600
O1625       O  0.48639690  0.99096575  0.25792566    -0.79200
C1626       C  0.55018714  0.46750475  0.13998496     0.96700
C1627       C  0.57893219  0.42090576  0.23349899     0.91600
O1628       O  0.57503216  0.45599551  0.23947544    -0.84500
O1629       O  0.92322266  0.29750549  0.26253344    -0.84000
C1630       C  0.54369745  0.30589334  0.33617138     0.95400
O1631       O  0.51721306  0.32660344  0.34157097    -0.73100
O1632       O  0.00678172  0.35424658  0.28615237    -0.76700
Al1633     Al  0.97652561  0.33189544  0.31424070     1.49000
C1634       C  0.99734989  0.35812431  0.25816411     0.90700
O1635       O  0.01184571  0.26252862  0.24403683    -0.82900
O1636       O  0.95591146  0.21924182  0.31196088    -0.76400
Al1637     Al  0.96830365  0.27992925  0.25581025     1.90100
O1638       O  0.51815919  0.22143345  0.28275839    -0.75500
O1639       O  0.97348558  0.26296681  0.35834604    -0.75400
O1640       O  0.53933625  0.27213320  0.32618727    -0.81000
O1641       O  0.94437432  0.31375609  0.34355589    -0.79200
O1642       O  0.98022531  0.28621156  0.29599681    -1.15400
O1643       O  0.93736962  0.34878682  0.28951127    -0.74600
C1644       C  0.91933315  0.33259905  0.26850279     0.96200
C1645       C  0.52347797  0.23145195  0.25437787     0.92600
Al1646     Al  0.99586571  0.24708952  0.31839596     1.55600
O1647       O  0.98269773  0.33100902  0.24329558    -0.79200
C1648       C  0.94814328  0.28610010  0.36204077     0.96700
C1649       C  0.94571227  0.20760545  0.28558365     0.91600
O1650       O  0.95117526  0.22707308  0.26080224    -0.84500
O1651       O  0.95013809  0.29741211  0.48952678    -0.84000
C1652       C  0.82968501  0.30580750  0.41585588     0.95400
O1653       O  0.85616718  0.32652500  0.41046925    -0.73100
O1654       O  0.86656051  0.35412909  0.46590270    -0.76700
Al1655     Al  0.89683828  0.33181758  0.43781560     1.49000
C1656       C  0.87599897  0.35801145  0.49388797     0.90700
O1657       O  0.86151271  0.26242183  0.50798007    -0.82900
O1658       O  0.91748679  0.21916921  0.44006953    -0.76400
Al1659     Al  0.90505654  0.27982749  0.49623056     1.90100
O1660       O  0.85522322  0.22133102  0.46925176    -0.75500
O1661       O  0.89992242  0.26291831  0.39368628    -0.75400
O1662       O  0.83405068  0.27204176  0.42582811    -0.81000
O1663       O  0.92900411  0.31371800  0.40850321    -0.79200
O1664       O  0.89314958  0.28612318  0.45604107    -1.15400
O1665       O  0.93598259  0.34870337  0.46256108    -0.74600
C1666       C  0.95402442  0.33250899  0.48356225     0.96200
C1667       C  0.84989124  0.23134493  0.49763236     0.92600
Al1668     Al  0.87752725  0.24700847  0.43362590     1.55600
O1669       O  0.89065568  0.33089903  0.50875535    -0.79200
C1670       C  0.92524940  0.28607684  0.39000235     0.96700
C1671       C  0.92766801  0.20752003  0.46644932     0.91600
O1672       O  0.92218959  0.22697577  0.49123331    -0.84500
O1673       O  0.79723130  0.02658251  0.74119197    -0.84000
C1674       C  0.70472097  0.44778299  0.66579495     0.95400
O1675       O  0.70908419  0.48154751  0.67577068    -0.73100
O1676       O  0.73026438  0.03225354  0.71920834    -0.76700
Al1677     Al  0.75256851  0.00657216  0.68357803     1.49000
C1678       C  0.72493756  0.02223842  0.74759083     0.90700
O1679       O  0.76567256  0.42265984  0.75869007    -0.82900
O1680       O  0.81098684  0.40484244  0.71251013    -0.76400
Al1681     Al  0.78008400  0.47373239  0.74617661     1.90100
O1682       O  0.74155831  0.39944690  0.71583917    -0.75500
O1683       O  0.80403603  0.43984430  0.65848772    -0.75400
O1684       O  0.73120463  0.42707329  0.66039968    -0.81000
O1685       O  0.77498009  0.49065244  0.64364581    -0.79200
O1686       O  0.76817505  0.46744804  0.70599127    -1.15400
O1687       O  0.79253347  0.03440479  0.69003063    -0.74600
C1688       C  0.80271853  0.04604264  0.71641215     0.96200
C1689       C  0.75101110  0.39555199  0.74382086     0.92600
Al1690     Al  0.77185433  0.42175204  0.68776452     1.55600
O1691       O  0.73654344  0.99114987  0.75792977    -0.79200
C1692       C  0.80030802  0.46748537  0.63998870     0.96700
C1693       C  0.82904758  0.42104257  0.73349417     0.91600
O1694       O  0.82516192  0.45613798  0.73946102    -0.84500
O1695       O  0.82628046  0.02632470  0.51083943    -0.84000
C1696       C  0.91879743  0.44754049  0.58623251     0.95400
O1697       O  0.91445081  0.48129316  0.57622523    -0.73100
O1698       O  0.89327360  0.03198656  0.53278579    -0.76700
Al1699     Al  0.87098855  0.00634699  0.56843099     1.49000
C1700       C  0.89858076  0.02195677  0.50440754     0.90700
O1701       O  0.85783042  0.42237680  0.49338932    -0.82900
O1702       O  0.81246456  0.40461818  0.53958065    -0.76400
Al1703     Al  0.84342279  0.47346338  0.50586562     1.90100
O1704       O  0.88188025  0.39914340  0.53626790    -0.75500
O1705       O  0.81945242  0.43974846  0.59358823    -0.75400
O1706       O  0.89229949  0.42685803  0.59166263    -0.81000
O1707       O  0.84860955  0.49050393  0.60838110    -0.79200
O1708       O  0.85533914  0.46720976  0.54605004    -1.15400
O1709       O  0.83104090  0.03419702  0.56199274    -0.74600
C1710       C  0.82082184  0.04580853  0.53561639     0.96200
C1711       C  0.87246471  0.39526099  0.50827482     0.92600
Al1712     Al  0.85161670  0.42154315  0.56432027     1.55600
O1713       O  0.88696591  0.99086287  0.49408818    -0.79200
C1714       C  0.82322532  0.46742218  0.61205267     0.96700
C1715       C  0.79443798  0.42079369  0.51855777     0.91600
O1716       O  0.79833744  0.45588430  0.51258131    -0.84500
O1717       O  0.67337732  0.29768683  0.76255093    -0.84000
C1718       C  0.79381457  0.30604767  0.83619972     0.95400
O1719       O  0.76733778  0.32676535  0.84160469    -0.73100
O1720       O  0.75695296  0.35439834  0.78617991    -0.76700
Al1721     Al  0.72666952  0.33207725  0.81426099     1.49000
C1722       C  0.74750555  0.35829298  0.75819788     0.90700
O1723       O  0.76200379  0.26269558  0.74407353    -0.82900
O1724       O  0.70600242  0.21942559  0.81197023    -0.76400
Al1725     Al  0.71845578  0.28010482  0.75583274     1.90100
O1726       O  0.76828186  0.22158752  0.78279122    -0.75500
O1727       O  0.72352741  0.26314667  0.85837391    -0.75400
O1728       O  0.78943995  0.27227883  0.82624322    -0.81000
O1729       O  0.69448958  0.31397657  0.84356464    -0.79200
O1730       O  0.73035566  0.28638459  0.79602417    -1.15400
O1731       O  0.68752961  0.34897777  0.78951881    -0.74600
C1732       C  0.66948915  0.33278326  0.76851690     0.96200
C1733       C  0.77361561  0.23160637  0.75440857     0.92600
Al1734     Al  0.74596053  0.24725553  0.81843087     1.55600
O1735       O  0.73285575  0.33118072  0.74332427    -0.79200
C1736       C  0.69819771  0.28631120  0.86204748     0.96700
C1737       C  0.69582739  0.20778701  0.78558579     0.91600
O1738       O  0.70131888  0.22725174  0.76080879    -0.84500
O1739       O  0.70008058  0.29774428  0.98947322    -0.84000
C1740       C  0.57963620  0.30610894  0.91583774     0.95400
O1741       O  0.60611700  0.32681885  0.91042616    -0.73100
O1742       O  0.61652056  0.35447446  0.96584365    -0.76700
Al1743     Al  0.64679163  0.33212729  0.93776253     1.49000
C1744       C  0.62595723  0.35835980  0.99383049     0.90700
O1745       O  0.61145451  0.26275714  0.00797203    -0.82900
O1746       O  0.66743187  0.21947435  0.94006553    -0.76400
Al1747     Al  0.65500216  0.28016509  0.99619996     1.90100
O1748       O  0.60516087  0.22165331  0.96925444    -0.75500
O1749       O  0.64990541  0.26318149  0.89366349    -0.75400
O1750       O  0.58400696  0.27234072  0.92580204    -0.81000
O1751       O  0.67896561  0.31400015  0.90845923    -0.79200
O1752       O  0.64309549  0.28644071  0.95601004    -1.15400
O1753       O  0.68593418  0.34902831  0.96249609    -0.74600
C1754       C  0.70396907  0.33283801  0.98350263     0.96200
C1755       C  0.59983196  0.23167303  0.99763689     0.92600
Al1756     Al  0.62747934  0.24730986  0.93361068     1.55600
O1757       O  0.64060389  0.33124572  0.00870360    -0.79200
C1758       C  0.67524828  0.28632691  0.88998593     0.96700
C1759       C  0.67761585  0.20783875  0.96644678     0.91600
O1760       O  0.67213620  0.22730864  0.99122429    -0.84500
O1761       O  0.82621161  0.27664924  0.01083164    -0.84000
C1762       C  0.91870622  0.19784551  0.08623475     0.95400
O1763       O  0.91434160  0.23161253  0.07626635    -0.73100
O1764       O  0.89317076  0.28231866  0.03282744    -0.76700
Al1765     Al  0.87085866  0.25663695  0.06845418     1.49000
C1766       C  0.89850703  0.27230044  0.00444714     0.90700
O1767       O  0.85777156  0.17272515  0.99333715    -0.82900
O1768       O  0.81244199  0.15491415  0.03951382    -0.76400
Al1769     Al  0.84335863  0.22379793  0.00584949     1.90100
O1770       O  0.88186839  0.14950396  0.03619287    -0.75500
O1771       O  0.81938584  0.18991172  0.09354475    -0.75400
O1772       O  0.89222176  0.17713468  0.09163014    -0.81000
O1773       O  0.84843913  0.24072056  0.10838591    -0.79200
O1774       O  0.85525621  0.21751268  0.04603829    -1.15400
O1775       O  0.83089535  0.28446805  0.06199467    -0.74600
C1776       C  0.82071709  0.29610813  0.03561148     0.96200
C1777       C  0.87242949  0.14561506  0.00820718     0.92600
Al1778     Al  0.85157164  0.17181703  0.06426524     1.55600
O1779       O  0.88690292  0.24121158  0.99410766    -0.79200
C1780       C  0.82310986  0.21755463  0.11204360     0.96700
C1781       C  0.79439124  0.17111130  0.01852225     0.91600
O1782       O  0.79827861  0.20620598  0.01255199    -0.84500
O1783       O  0.79708678  0.27643782  0.24119314    -0.84000
C1784       C  0.70460029  0.19763442  0.16579546     0.95400
O1785       O  0.70894724  0.23139427  0.17578764    -0.73100
O1786       O  0.73011037  0.28209407  0.21922296    -0.76700
Al1787     Al  0.75240924  0.25644536  0.18358808     1.49000
C1788       C  0.72478642  0.27206265  0.24759874     0.90700
O1789       O  0.76553393  0.17248938  0.25865370    -0.82900
O1790       O  0.81091561  0.15473113  0.21247350    -0.76400
Al1791     Al  0.77994451  0.22357500  0.24617033     1.90100
O1792       O  0.74150017  0.14924814  0.21577241    -0.75500
O1793       O  0.80394702  0.18983362  0.15845099    -0.75400
O1794       O  0.73109636  0.17694983  0.16037199    -0.81000
O1795       O  0.77480335  0.24059141  0.14364395    -0.79200
O1796       O  0.76804782  0.21731242  0.20598116    -1.15400
O1797       O  0.79235660  0.28429227  0.19003527    -0.74600
C1798       C  0.80256016  0.29591240  0.21641480     0.96200
C1799       C  0.75090153  0.14537191  0.24376971     0.92600
Al1800     Al  0.77177282  0.17164164  0.18772143     1.55600
O1801       O  0.73639580  0.24096820  0.25792270    -0.79200
C1802       C  0.80018357  0.21750085  0.13997861     0.96700
C1803       C  0.82893480  0.17090749  0.23350195     0.91600
O1804       O  0.82503286  0.20599782  0.23947892    -0.84500
O1805       O  0.70013603  0.04740255  0.48951995    -0.84000
C1806       C  0.57968186  0.05580125  0.41585353     0.95400
O1807       O  0.60616449  0.07651698  0.41046343    -0.73100
O1808       O  0.61656421  0.10413004  0.46589198    -0.76700
Al1809     Al  0.64683881  0.08180911  0.43780692     1.49000
C1810       C  0.62599993  0.10801441  0.49387764     0.90700
O1811       O  0.61150860  0.01242728  0.50797635    -0.82900
O1812       O  0.66748083  0.46916035  0.44007000    -0.76400
Al1813     Al  0.65505341  0.02982584  0.49622588     1.90100
O1814       O  0.60521911  0.47132922  0.46925317    -0.75500
O1815       O  0.64991724  0.01290400  0.39368164    -0.75400
O1816       O  0.58404661  0.02203586  0.42582591    -0.81000
O1817       O  0.67900245  0.06370207  0.40849532    -0.79200
O1818       O  0.64314684  0.03611742  0.45603616    -1.15400
O1819       O  0.68598596  0.09869257  0.46255087    -0.74600
C1820       C  0.70402518  0.08249726  0.48355337     0.96200
C1821       C  0.59988880  0.48134748  0.49763295     0.92600
Al1822     Al  0.62752239  0.99700084  0.43362431     1.55600
O1823       O  0.64065622  0.08090172  0.50874658    -0.79200
C1824       C  0.67524576  0.03606114  0.38999625     0.96700
C1825       C  0.67766389  0.45751353  0.46645042     0.91600
O1826       O  0.67218340  0.47697143  0.49123354    -0.84500
O1827       O  0.67322389  0.04750384  0.26252463    -0.84000
C1828       C  0.79369364  0.05588426  0.33616737     0.95400
O1829       O  0.76720909  0.07659224  0.34156884    -0.73100
O1830       O  0.75677894  0.10424609  0.28615394    -0.76700
Al1831     Al  0.72652221  0.08188776  0.31423776     1.49000
C1832       C  0.74735006  0.10812649  0.25816392     0.90700
O1833       O  0.76184791  0.01252957  0.24402771    -0.82900
O1834       O  0.70591051  0.46923780  0.31194618    -0.76400
Al1835     Al  0.71830511  0.02992957  0.25580147     1.90100
O1836       O  0.76815883  0.47143085  0.28274704    -0.75500
O1837       O  0.72348237  0.01295304  0.35833715    -0.75400
O1838       O  0.78933391  0.02212468  0.32618017    -0.81000
O1839       O  0.69436887  0.06374095  0.34354950    -0.79200
O1840       O  0.73022478  0.03620705  0.29598908    -1.15400
O1841       O  0.68736776  0.09878140  0.28950875    -0.74600
C1842       C  0.66933214  0.08259614  0.26849759     0.96200
C1843       C  0.77347922  0.48145263  0.25436734     0.92600
Al1844     Al  0.74586408  0.99708245  0.31838544     1.55600
O1845       O  0.73269992  0.08101109  0.24329328    -0.79200
C1846       C  0.69813819  0.03608487  0.36203182     0.96700
C1847       C  0.69571187  0.45760453  0.28556879     0.91600
O1848       O  0.70117577  0.47707220  0.26078798    -0.84500
O1849       O  0.54722811  0.27658381  0.74118871    -0.84000
C1850       C  0.95471310  0.19779093  0.66578814     0.95400
O1851       O  0.95907816  0.23155508  0.67576388    -0.73100
O1852       O  0.98026087  0.28225569  0.71920560    -0.76700
Al1853     Al  0.50256362  0.25658072  0.68357273     1.49000
C1854       C  0.97493666  0.27223818  0.74758826     0.90700
O1855       O  0.51567420  0.17265890  0.75867784    -0.82900
O1856       O  0.56098860  0.15485018  0.71249523    -0.76400
Al1857     Al  0.53008274  0.22373372  0.74616776     1.90100
O1858       O  0.49155971  0.14944761  0.71582673    -0.75500
O1859       O  0.55403015  0.18985699  0.65847387    -0.75400
O1860       O  0.98119711  0.17708104  0.66039115    -0.81000
O1861       O  0.52497496  0.24066756  0.64363747    -0.79200
O1862       O  0.51817176  0.21745403  0.70598223    -1.15400
O1863       O  0.54252781  0.28441554  0.69002810    -0.74600
C1864       C  0.55271670  0.29604913  0.71641090     0.96200
C1865       C  0.50101192  0.14555162  0.74380758     0.92600
Al1866     Al  0.52185174  0.17175985  0.68775208     1.55600
O1867       O  0.48654268  0.24114708  0.75792363    -0.79200
C1868       C  0.55030223  0.21749949  0.63997740     0.96700
C1869       C  0.57904778  0.17105008  0.73348037     0.91600
O1870       O  0.57516090  0.20614454  0.73944815    -0.84500
O1871       O  0.57627815  0.27633271  0.51082586    -0.84000
C1872       C  0.66878847  0.19754338  0.58621928     0.95400
O1873       O  0.66444675  0.23129493  0.57621007    -0.73100
O1874       O  0.64327222  0.28198862  0.53277035    -0.76700
Al1875     Al  0.62098669  0.25635237  0.56841667     1.49000
C1876       C  0.64857820  0.27195857  0.50439252     0.90700
O1877       O  0.60782529  0.17237902  0.49337807    -0.82900
O1878       O  0.56245822  0.15462970  0.53957126    -0.76400
Al1879     Al  0.59341846  0.22346901  0.50585219     1.90100
O1880       O  0.63187072  0.14914602  0.53625941    -0.75500
O1881       O  0.56944287  0.18976391  0.59357474    -0.75400
O1882       O  0.64229001  0.17686505  0.59165253    -0.81000
O1883       O  0.59860676  0.24051354  0.60836854    -0.79200
O1884       O  0.60533466  0.21721623  0.54603684    -1.15400
O1885       O  0.58104176  0.28420263  0.56197935    -0.74600
C1886       C  0.57082142  0.29581565  0.53560413     0.96200
C1887       C  0.62245924  0.14526322  0.50826445     0.92600
Al1888     Al  0.60160797  0.17155206  0.56430946     1.55600
O1889       O  0.63696170  0.24086477  0.49407313    -0.79200
C1890       C  0.57321833  0.21743641  0.61203952     0.96700
C1891       C  0.54443276  0.17080490  0.51854761     0.91600
O1892       O  0.54833296  0.20589413  0.51256901    -0.84500
O1893       O  0.92337440  0.04768609  0.76253214    -0.84000
C1894       C  0.54380401  0.05605239  0.83618979     0.95400
O1895       O  0.51732515  0.07676778  0.84159460    -0.73100
O1896       O  0.00694386  0.10440085  0.78617019    -0.76700
Al1897     Al  0.97665928  0.08207708  0.81424904     1.49000
C1898       C  0.99750164  0.10829246  0.75818590     0.90700
O1899       O  0.01200430  0.01269432  0.74406462    -0.82900
O1900       O  0.95599735  0.46942907  0.81196027    -0.76400
Al1901     Al  0.96845423  0.03010300  0.75581993     1.90100
O1902       O  0.51827835  0.47158824  0.78278394    -0.75500
O1903       O  0.97351991  0.01314936  0.85836349    -0.75400
O1904       O  0.53943082  0.02228221  0.82623365    -0.81000
O1905       O  0.94447688  0.06397389  0.84355151    -0.79200
O1906       O  0.98034925  0.03638527  0.79601239    -1.15400
O1907       O  0.93752208  0.09897474  0.78950468    -0.74600
C1908       C  0.91948500  0.08277979  0.76850094     0.96200
C1909       C  0.52361637  0.48160646  0.75440241     0.92600
Al1910     Al  0.99595416  0.99725793  0.81842124     1.55600
O1911       O  0.98285523  0.08118022  0.74331167    -0.79200
C1912       C  0.94818811  0.03631069  0.86203641     0.96700
C1913       C  0.94582539  0.45778661  0.78557674     0.91600
O1914       O  0.95131733  0.47724841  0.76079776    -0.84500
O1915       O  0.95007513  0.04774503  0.98946941    -0.84000
C1916       C  0.82962824  0.05609979  0.91583186     0.95400
O1917       O  0.85610750  0.07681307  0.91042067    -0.73100
O1918       O  0.86651380  0.10447132  0.96583589    -0.76700
Al1919     Al  0.89678496  0.08212445  0.93775542     1.49000
C1920       C  0.87595212  0.10836023  0.99382184     0.90700
O1921       O  0.86144874  0.01275797  0.00796545    -0.82900
O1922       O  0.91743181  0.46947276  0.94006384    -0.76400
Al1923     Al  0.90499655  0.03016605  0.99619492     1.90100
O1924       O  0.85516008  0.47164920  0.96925051    -0.75500
O1925       O  0.89990068  0.01317656  0.89365752    -0.75400
O1926       O  0.83400128  0.02233287  0.92579590    -0.81000
O1927       O  0.92895791  0.06399877  0.90845040    -0.79200
O1928       O  0.89309082  0.03643871  0.95600404    -1.15400
O1929       O  0.93593018  0.09902771  0.96248946    -0.74600
C1930       C  0.95396566  0.08283919  0.98349782     0.96200
C1931       C  0.84982981  0.48167120  0.99763226     0.92600
Al1932     Al  0.87747658  0.99730531  0.93360617     1.55600
O1933       O  0.89059819  0.08124658  0.00869631    -0.79200
C1934       C  0.92524052  0.03632457  0.88997610     0.96700
C1935       C  0.92761519  0.45784090  0.96644596     0.91600
O1936       O  0.92213211  0.47731054  0.99122261    -0.84500
O1937       O  0.92326463  0.33122895  0.98951588    -0.84000
C1938       C  0.54372849  0.32284048  0.91586003     0.95400
O1939       O  0.51724469  0.30212587  0.91046758    -0.73100
O1940       O  0.00683935  0.27450560  0.96589496    -0.76700
Al1941     Al  0.97656874  0.29683069  0.93780827     1.49000
C1942       C  0.99739816  0.27061936  0.99387926     0.90700
O1943       O  0.01188916  0.36621015  0.00798918    -0.82900
O1944       O  0.95593081  0.40947902  0.94007361    -0.76400
Al1945     Al  0.96834622  0.34880847  0.99622933     1.90100
O1946       O  0.51818681  0.40730710  0.96926606    -0.75500
O1947       O  0.97350178  0.36573960  0.89368787    -0.75400
O1948       O  0.53936488  0.35660234  0.92583892    -0.81000
O1949       O  0.94440932  0.31494389  0.90849600    -0.79200
O1950       O  0.98026007  0.34252011  0.95604129    -1.15400
O1951       O  0.93741880  0.27994179  0.96254642    -0.74600
C1952       C  0.91937604  0.29613496  0.98354784     0.96200
C1953       C  0.52351262  0.39728923  0.99764694     0.92600
Al1954     Al  0.99588932  0.38163850  0.93363355     1.55600
O1955       O  0.98274283  0.29773167  0.00874849    -0.79200
C1956       C  0.94817133  0.34258636  0.88999951     0.96700
C1957       C  0.94574009  0.42112220  0.96645186     0.91600
O1958       O  0.95121497  0.40166230  0.99123565    -0.84500
O1959       O  0.95018927  0.33116927  0.76252271    -0.84000
C1960       C  0.82972504  0.32277848  0.83617422     0.95400
O1961       O  0.85621054  0.30206817  0.84157032    -0.73100
O1962       O  0.86663720  0.27442215  0.78615185    -0.76700
Al1963     Al  0.89689526  0.29677695  0.81423706     1.49000
C1964       C  0.87606413  0.27054685  0.75816081     0.90700
O1965       O  0.86156302  0.36614269  0.74403897    -0.82900
O1966       O  0.91751018  0.40942829  0.81195234    -0.76400
Al1967     Al  0.90510729  0.34874330  0.75580497     1.90100
O1968       O  0.85525834  0.40723927  0.78276037    -0.75500
O1969       O  0.89993937  0.36570588  0.85834199    -0.75400
O1970       O  0.83408580  0.35654030  0.82619087    -0.81000
O1971       O  0.92904954  0.31491775  0.84354888    -0.79200
O1972       O  0.89319211  0.34246061  0.79599322    -1.15400
O1973       O  0.93604810  0.27988892  0.78950505    -0.74600
C1974       C  0.95408053  0.29607729  0.76849454     0.96200
C1975       C  0.84993424  0.39721962  0.75438123     0.92600
Al1976     Al  0.87755598  0.38158276  0.81839412     1.55600
O1977       O  0.89071277  0.29766329  0.74329238    -0.79200
C1978       C  0.92528216  0.34257073  0.86203520     0.96700
C1979       C  0.92770472  0.42106601  0.78557342     0.91600
O1980       O  0.92223575  0.40159924  0.76079261    -0.84500
O1981       O  0.54711671  0.10230263  0.01083613    -0.84000
C1982       C  0.95460974  0.18109583  0.08622650     0.95400
O1983       O  0.95895505  0.14734085  0.07622453    -0.73100
O1984       O  0.98012833  0.09664285  0.03278786    -0.76700
Al1985     Al  0.50241775  0.12228805  0.06843013     1.49000
C1986       C  0.97481618  0.10667281  0.00440915     0.90700
O1987       O  0.51556449  0.20625140  0.99337811    -0.82900
O1988       O  0.56093203  0.22401171  0.03956451    -0.76400
Al1989     Al  0.52997344  0.15516474  0.00585830     1.90100
O1990       O  0.49151516  0.22948318  0.03625663    -0.75500
O1991       O  0.55395342  0.18889524  0.09357692    -0.75400
O1992       O  0.98110608  0.20177818  0.09165498    -0.81000
O1993       O  0.52480261  0.13813886  0.10837821    -0.79200
O1994       O  0.51806300  0.16142241  0.04604391    -1.15400
O1995       O  0.54236559  0.09443984  0.06199142    -0.74600
C1996       C  0.55258130  0.08282394  0.03561437     0.96200
C1997       C  0.50093007  0.23336779  0.00826362     0.92600
Al1998     Al  0.52178447  0.20709152  0.06430867     1.55600
O1999       O  0.48642879  0.13776605  0.99408850    -0.79200
C2000       C  0.55018487  0.16122593  0.11204619     0.96700
C2001       C  0.57895878  0.20783455  0.01854219     0.91600
O2002       O  0.57505912  0.17274359  0.01256681    -0.84500
O2003       O  0.57618071  0.10209089  0.24119218    -0.84000
C2004       C  0.66869525  0.18088584  0.16579439     0.95400
O2005       O  0.66433057  0.14712276  0.17577025    -0.73100
O2006       O  0.64314955  0.09642093  0.21921081    -0.76700
Al2007     Al  0.62084601  0.12209656  0.18357812     1.49000
C2008       C  0.64847462  0.10643601  0.24759395     0.90700
O2009       O  0.60773626  0.20601532  0.25868293    -0.82900
O2010       O  0.56242030  0.22382755  0.21250031    -0.76400
Al2011     Al  0.59332643  0.15494160  0.24617314     1.90100
O2012       O  0.63184897  0.22922692  0.21583062    -0.75500
O2013       O  0.56937681  0.18881800  0.15847692    -0.75400
O2014       O  0.64221140  0.20159603  0.16039573    -0.81000
O2015       O  0.59843458  0.13800849  0.14364301    -0.79200
O2016       O  0.60523704  0.16122235  0.20598730    -1.15400
O2017       O  0.58088268  0.09426260  0.19003162    -0.74600
C2018       C  0.57069541  0.08262648  0.21641433     0.96200
C2019       C  0.62239810  0.23312268  0.24381162     0.92600
Al2020     Al  0.60155639  0.20691645  0.18775636     1.55600
O2021       O  0.63686669  0.13752618  0.25793036    -0.79200
C2022       C  0.57310433  0.16117359  0.13998287     0.96700
C2023       C  0.54436227  0.20762817  0.23348694     0.91600
O2024       O  0.54824814  0.17253381  0.23945428    -0.84500
O2025       O  0.70003909  0.33098479  0.26253672    -0.84000
C2026       C  0.57960771  0.32262356  0.33619466     0.95400
O2027       O  0.60608531  0.30190586  0.34159718    -0.73100
O2028       O  0.61646287  0.27427549  0.28617141    -0.76700
Al2029     Al  0.64674998  0.29659383  0.31425006     1.49000
C2030       C  0.62590784  0.27038107  0.25818846     0.90700
O2031       O  0.61141073  0.36597579  0.24406724    -0.82900
O2032       O  0.66741973  0.40924111  0.31195928    -0.76400
Al2033     Al  0.65495976  0.34856753  0.25582199     1.90100
O2034       O  0.60513804  0.40708340  0.28278581    -0.75500
O2035       O  0.64989651  0.36552058  0.35836394    -0.75400
O2036       O  0.58398248  0.35639333  0.32623751    -0.81000
O2037       O  0.67893317  0.31469192  0.34355056    -0.79200
O2038       O  0.64306344  0.34228630  0.29601430    -1.15400
O2039       O  0.68588685  0.27969415  0.28950558    -0.74600
C2040       C  0.70392790  0.29589070  0.26850438     0.96200
C2041       C  0.59980027  0.39706426  0.25440444     0.92600
Al2042     Al  0.62746161  0.38141444  0.31842280     1.55600
O2043       O  0.64055848  0.29749145  0.24331442    -0.79200
C2044       C  0.67522514  0.34235474  0.36203633     0.96700
C2045       C  0.67759035  0.42088427  0.28557476     0.91600
O2046       O  0.67209637  0.40142083  0.26079657    -0.84500
O2047       O  0.67331692  0.33088511  0.48945239    -0.84000
C2048       C  0.79377563  0.32253740  0.41583773     0.95400
O2049       O  0.76729590  0.30182723  0.41041985    -0.73100
O2050       O  0.75687783  0.27415455  0.46582981    -0.76700
Al2051     Al  0.72661436  0.29651307  0.43774864     1.49000
C2052       C  0.74743680  0.27026401  0.49381532     0.90700
O2053       O  0.76194019  0.36586900  0.50797968    -0.82900
O2054       O  0.70597811  0.40916579  0.44006687    -0.76400
Al2055     Al  0.71839428  0.34846145  0.49619331     1.90100
O2056       O  0.76824280  0.40697789  0.46926624    -0.75500
O2057       O  0.72351409  0.36547117  0.39366123    -0.75400
O2058       O  0.78940464  0.35630064  0.42580876    -0.81000
O2059       O  0.69444745  0.31465167  0.40844441    -0.79200
O2060       O  0.73031025  0.34219477  0.45600495    -1.15400
O2061       O  0.68746470  0.27960455  0.46247345    -0.74600
C2062       C  0.66942737  0.29579369  0.48347956     0.96200
C2063       C  0.77356671  0.39695493  0.49764928     0.92600
Al2064     Al  0.74593169  0.38133126  0.43361501     1.55600
O2065       O  0.73278929  0.29737696  0.50868988    -0.79200
C2066       C  0.69817087  0.34233051  0.38997659     0.96700
C2067       C  0.69578688  0.42079355  0.46644729     0.91600
O2068       O  0.70126099  0.40131918  0.49122311    -0.84500
O2069       O  0.82632883  0.10223551  0.74119135    -0.84000
C2070       C  0.91880868  0.18104061  0.66578906     0.95400
O2071       O  0.91446369  0.14728112  0.67578092    -0.73100
O2072       O  0.89330546  0.09657923  0.71921808    -0.76700
Al2073     Al  0.87100381  0.12222644  0.68358395     1.49000
C2074       C  0.89862826  0.10661038  0.74759369     0.90700
O2075       O  0.85788177  0.20618289  0.75864719    -0.82900
O2076       O  0.81249365  0.22393969  0.71246736    -0.76400
Al2077     Al  0.84347076  0.15509785  0.74616607     1.90100
O2078       O  0.88190647  0.22943081  0.71576344    -0.75500
O2079       O  0.81945930  0.18883085  0.65844595    -0.75400
O2080       O  0.89231101  0.20172357  0.66036408    -0.81000
O2081       O  0.84860647  0.13807526  0.64364079    -0.79200
O2082       O  0.85536470  0.16135995  0.70597636    -1.15400
O2083       O  0.83105888  0.09437721  0.69003377    -0.74600
C2084       C  0.82085568  0.08275802  0.71641384     0.96200
C2085       C  0.87251043  0.23330323  0.74376233     0.92600
Al2086     Al  0.85163492  0.20702977  0.68771414     1.55600
O2087       O  0.88702040  0.13770473  0.75791717    -0.79200
C2088       C  0.82322144  0.16115972  0.63997598     0.96700
C2089       C  0.79447972  0.20776388  0.73349938     0.91600
O2090       O  0.79838186  0.17267431  0.73947653    -0.84500
O2091       O  0.79718685  0.10198035  0.51083870    -0.84000
C2092       C  0.70469129  0.18079173  0.58623419     0.95400
O2093       O  0.70905715  0.14702188  0.57627097    -0.73100
O2094       O  0.73022848  0.09631183  0.53283581    -0.76700
Al2095     Al  0.75254195  0.12199807  0.56846075     1.49000
C2096       C  0.72489295  0.10632980  0.50445428     0.90700
O2097       O  0.76562511  0.20590117  0.49333376    -0.82900
O2098       O  0.81094937  0.22372079  0.53950598    -0.76400
Al2099     Al  0.78003963  0.15483049  0.50585214     1.90100
O2100       O  0.74152005  0.22912011  0.53618573    -0.75500
O2101       O  0.80400969  0.18873684  0.59354151    -0.75400
O2102       O  0.73117495  0.20150266  0.59162804    -0.81000
O2103       O  0.77496546  0.13792383  0.60838998    -0.79200
O2104       O  0.76814222  0.16111996  0.54604044    -1.15400
O2105       O  0.79250558  0.09416489  0.56200266    -0.74600
C2106       C  0.80268337  0.08252157  0.53561973     0.96200
C2107       C  0.75096104  0.23301023  0.50820066     0.92600
Al2108     Al  0.77182176  0.20681950  0.56426038     1.55600
O2109       O  0.73649653  0.13741727  0.49411413    -0.79200
C2110       C  0.80029146  0.16109712  0.61204424     0.96700
C2111       C  0.82900523  0.20752036  0.51851814     0.91600
O2112       O  0.82511928  0.17242464  0.51255216    -0.84500
O2113       O  0.92331701  0.58088655  0.48946518    -0.84000
C2114       C  0.54377227  0.57253242  0.41583801     0.95400
O2115       O  0.51729137  0.55182125  0.41042550    -0.73100
O2116       O  0.00688153  0.52416346  0.46584163    -0.76700
Al2117     Al  0.97661325  0.54651098  0.43775899     1.49000
C2118       C  0.99744253  0.52027563  0.49382857     0.90700
O2119       O  0.01193910  0.61587974  0.50797637    -0.82900
O2120       O  0.95597408  0.65916521  0.44006446    -0.76400
Al2121     Al  0.96839431  0.59846860  0.49619772     1.90100
O2122       O  0.51823983  0.65698217  0.46925821    -0.75500
O2123       O  0.97350721  0.61546061  0.39366382    -0.75400
O2124       O  0.53940113  0.60629706  0.42580640    -0.81000
O2125       O  0.94444279  0.56464150  0.40845356    -0.79200
O2126       O  0.98030733  0.59219607  0.45600892    -1.15400
O2127       O  0.93746749  0.52960409  0.46248896    -0.74600
C2128       C  0.91942909  0.54579221  0.48349486     0.96200
C2129       C  0.52356314  0.64696393  0.49764166     0.92600
Al2130     Al  0.99592712  0.63132866  0.43361279     1.55600
O2131       O  0.98279337  0.54738923  0.50870071    -0.79200
C2132       C  0.94816382  0.59231836  0.38998202     0.96700
C2133       C  0.94578609  0.67079662  0.46644588     0.91600
O2134       O  0.95125933  0.65132386  0.49122170    -0.84500
O2135       O  0.95004478  0.58098331  0.26254669    -0.84000
C2136       C  0.82960335  0.57261507  0.33619241     0.95400
O2137       O  0.85608126  0.55189615  0.34159499    -0.73100
O2138       O  0.86646295  0.52427550  0.28616618    -0.76700
Al2139     Al  0.89674747  0.54658746  0.31425044     1.49000
C2140       C  0.87591142  0.52038349  0.25818410     0.90700
O2141       O  0.86141999  0.61598129  0.24406778    -0.82900
O2142       O  0.91741806  0.65923983  0.31197152    -0.76400
Al2143     Al  0.90496670  0.59856904  0.25582777     1.90100
O2144       O  0.85513853  0.65708156  0.28279052    -0.75500
O2145       O  0.89989086  0.61550909  0.35836974    -0.75400
O2146       O  0.83397960  0.60638495  0.32623736    -0.81000
O2147       O  0.92892711  0.56467958  0.34355629    -0.79200
O2148       O  0.89306448  0.59228318  0.29601826    -1.15400
O2149       O  0.93588667  0.52968930  0.28950824    -0.74600
C2150       C  0.95392977  0.54588751  0.26851080     0.96200
C2151       C  0.84980438  0.64706663  0.25440640     0.92600
Al2152     Al  0.87745929  0.63140852  0.31842822     1.55600
O2153       O  0.89056543  0.54749464  0.24331350    -0.79200
C2154       C  0.92521806  0.59234071  0.36204288     0.96700
C2155       C  0.92759199  0.67088304  0.28558851     0.91600
O2156       O  0.92210368  0.65142153  0.26080974    -0.84500
O2157       O  0.79711322  0.85230303  0.01083083    -0.84000
C2158       C  0.70461726  0.93109371  0.08623302     0.95400
O2159       O  0.70896097  0.89733892  0.07623090    -0.73100
O2160       O  0.73013038  0.84664217  0.03279162    -0.76700
Al2161     Al  0.75242283  0.87228580  0.06843141     1.49000
C2162       C  0.72481734  0.85667340  0.00441475     0.90700
O2163       O  0.76556205  0.95625063  0.99338018    -0.82900
O2164       O  0.81093589  0.97400830  0.03956332    -0.76400
Al2165     Al  0.77997142  0.90516446  0.00585783     1.90100
O2166       O  0.74151995  0.97948560  0.03626082    -0.75500
O2167       O  0.80396193  0.93888941  0.09357429    -0.75400
O2168       O  0.73111428  0.95177605  0.09165934    -0.81000
O2169       O  0.77481099  0.88813416  0.10837728    -0.79200
O2170       O  0.76806573  0.91142119  0.04604447    -1.15400
O2171       O  0.79236960  0.84443848  0.06198673    -0.74600
C2172       C  0.80258011  0.83282196  0.03560825     0.96200
C2173       C  0.75092983  0.98336629  0.00826593     0.92600
Al2174     Al  0.77179059  0.95708908  0.06431005     1.55600
O2175       O  0.73642547  0.88776848  0.99409382    -0.79200
C2176       C  0.80019392  0.91121925  0.11204352     0.96700
C2177       C  0.82895890  0.95783162  0.01853898     0.91600
O2178       O  0.82505837  0.92274161  0.01256206    -0.84500
O2179       O  0.82618306  0.85209258  0.24118822    -0.84000
C2180       C  0.91869980  0.93088492  0.16579173     0.95400
O2181       O  0.91433663  0.89712188  0.17577055    -0.73100
O2182       O  0.89315450  0.84642085  0.21921236    -0.76700
Al2183     Al  0.87085316  0.87209486  0.18357683     1.49000
C2184       C  0.89847652  0.85643815  0.24759534     0.90700
O2185       O  0.85773862  0.95601822  0.25867583    -0.82900
O2186       O  0.81242440  0.97382853  0.21249195    -0.76400
Al2187     Al  0.84332896  0.90494371  0.24616808     1.90100
O2188       O  0.88185222  0.97923080  0.21582383    -0.75500
O2189       O  0.81938329  0.93881290  0.15847284    -0.75400
O2190       O  0.89221553  0.95159225  0.16039038    -0.81000
O2191       O  0.84844430  0.88800479  0.14364024    -0.79200
O2192       O  0.85524233  0.91122231  0.20598351    -1.15400
O2193       O  0.83088988  0.84425992  0.19002851    -0.74600
C2194       C  0.82069914  0.83262641  0.21641085     0.96200
C2195       C  0.87240114  0.98312611  0.24380528     0.92600
Al2196     Al  0.85156118  0.95691540  0.18775016     1.55600
O2197       O  0.88686841  0.88752867  0.25792933    -0.79200
C2198       C  0.82311322  0.91116776  0.13997912     0.96700
C2199       C  0.79436518  0.95762960  0.23347718     0.91600
O2200       O  0.79825125  0.92253480  0.23944506    -0.84500
O2201       O  0.70018787  0.58117123  0.76252315    -0.84000
C2202       C  0.57971269  0.57278381  0.83616346     0.95400
O2203       O  0.60619720  0.55207293  0.84156082    -0.73100
O2204       O  0.61662306  0.52443568  0.78613978    -0.76700
Al2205     Al  0.64688178  0.54678015  0.81422859     1.49000
C2206       C  0.62605927  0.52055404  0.75815176     0.90700
O2207       O  0.61156622  0.61615227  0.74402763    -0.82900
O2208       O  0.66750084  0.65943127  0.81195416    -0.76400
Al2209     Al  0.65510735  0.59874943  0.75580042     1.90100
O2210       O  0.60525336  0.65724526  0.78275054    -0.75500
O2211       O  0.64992467  0.61570299  0.85833752    -0.75400
O2212       O  0.58407371  0.60654380  0.82617822    -0.81000
O2213       O  0.67903391  0.56491371  0.84354363    -0.79200
O2214       O  0.64318486  0.59246527  0.79598685    -1.15400
O2215       O  0.68603669  0.52988939  0.78949904    -0.74600
C2216       C  0.70407556  0.54607796  0.76849383     0.96200
C2217       C  0.59993419  0.64722749  0.75437008     0.92600
Al2218     Al  0.62754581  0.63158579  0.81838768     1.55600
O2219       O  0.64071208  0.54766978  0.74328395    -0.79200
C2220       C  0.67526599  0.59256456  0.86203186     0.96700
C2221       C  0.67770282  0.67106888  0.78557737     0.91600
O2222       O  0.67223786  0.65160430  0.76079492    -0.84500
O2223       O  0.67326014  0.58122498  0.98951687    -0.84000
C2224       C  0.79371769  0.57282909  0.91585253     0.95400
O2225       O  0.76723431  0.55211314  0.91046330    -0.73100
O2226       O  0.75682846  0.52449731  0.96589142    -0.76700
Al2227     Al  0.72655744  0.54682211  0.93780492     1.49000
C2228       C  0.74739213  0.52061577  0.99387769     0.90700
O2229       O  0.76188707  0.61620658  0.00797895    -0.82900
O2230       O  0.70591957  0.65947181  0.94006907    -0.76400
Al2231     Al  0.71834234  0.59880431  0.99622508     1.90100
O2232       O  0.76817985  0.65730063  0.96925338    -0.75500
O2233       O  0.72348668  0.61573092  0.89368271    -0.75400
O2234       O  0.78935283  0.60659348  0.92582735    -0.81000
O2235       O  0.69439609  0.56493440  0.90849198    -0.79200
O2236       O  0.73025103  0.59251300  0.95603580    -1.15400
O2237       O  0.68740909  0.52993683  0.96254631    -0.74600
C2238       C  0.66937128  0.54613154  0.98355086     0.96200
C2239       C  0.77350816  0.64728393  0.99763381     0.92600
Al2240     Al  0.74587775  0.63163006  0.93362501     1.55600
O2241       O  0.73273934  0.54772929  0.00874606    -0.79200
C2242       C  0.69815455  0.59257757  0.88999509     0.96700
C2243       C  0.69573495  0.67111749  0.96644919     0.91600
O2244       O  0.70121211  0.65165747  0.99123189    -0.84500
O2245       O  0.57633339  0.85223549  0.74119571    -0.84000
C2246       C  0.66881886  0.93103218  0.66579576     0.95400
O2247       O  0.66447421  0.89727510  0.67579219    -0.73100
O2248       O  0.64331249  0.84657687  0.71923126    -0.76700
Al2249     Al  0.62101470  0.87222228  0.68359250     1.49000
C2250       C  0.64863349  0.85661220  0.74760654     0.90700
O2251       O  0.60788731  0.95618729  0.75864768    -0.82900
O2252       O  0.56250321  0.97393951  0.71246709    -0.76400
Al2253     Al  0.59347682  0.90509937  0.74617010     1.90100
O2254       O  0.63191782  0.97942747  0.71576376    -0.75500
O2255       O  0.56947109  0.93882385  0.65845004    -0.75400
O2256       O  0.64232069  0.95171397  0.66036672    -0.81000
O2257       O  0.59862103  0.88806970  0.64364618    -0.79200
O2258       O  0.60537419  0.91135760  0.70598132    -1.15400
O2259       O  0.58106873  0.84437631  0.69003871    -0.74600
C2260       C  0.57086015  0.83275975  0.71641699     0.96200
C2261       C  0.62251570  0.98330618  0.74376096     0.92600
Al2262     Al  0.60164585  0.95702540  0.68771619     1.55600
O2263       O  0.63702599  0.88770672  0.75792668    -0.79200
C2264       C  0.57323569  0.91115385  0.63998190     0.96700
C2265       C  0.54448653  0.95776374  0.73349671     0.91600
O2266       O  0.54838839  0.92267546  0.73947603    -0.84500
O2267       O  0.54718246  0.85198963  0.51083433    -0.84000
C2268       C  0.95470141  0.93079314  0.58624713     0.95400
O2269       O  0.95906802  0.89702291  0.57628451    -0.73100
O2270       O  0.98023272  0.84632036  0.53284207    -0.76700
Al2271     Al  0.50255145  0.87200157  0.56846612     1.49000
C2272       C  0.97489141  0.85634200  0.50446252     0.90700
O2273       O  0.51562650  0.95591377  0.49334568    -0.82900
O2274       O  0.56095961  0.97372346  0.53951610    -0.76400
Al2275     Al  0.53003785  0.90484153  0.50585746     1.90100
O2276       O  0.49153153  0.97913470  0.53620145    -0.75500
O2277       O  0.55402149  0.93873415  0.59354952    -0.75400
O2278       O  0.98118422  0.95150572  0.59163960    -0.81000
O2279       O  0.52497934  0.88791933  0.60839467    -0.79200
O2280       O  0.51814743  0.91112700  0.54604773    -1.15400
O2281       O  0.54251520  0.84417159  0.56199860    -0.74600
C2282       C  0.55268449  0.83253007  0.53561290     0.96200
C2283       C  0.50096784  0.98302415  0.50821558     0.92600
Al2284     Al  0.52183217  0.95682391  0.56427190     1.55600
O2285       O  0.48649092  0.88743314  0.49412417    -0.79200
C2286       C  0.55030533  0.91109240  0.61204827     0.96700
C2287       C  0.57900832  0.95752338  0.51852339     0.91600
O2288       O  0.57511913  0.92242917  0.51255535    -0.84500
O2289       O  0.57621553  0.52664872  0.01084358    -0.84000
C2290       C  0.66871360  0.94784422  0.08624440     0.95400
O2291       O  0.66434841  0.98161199  0.07627672    -0.73100
O2292       O  0.64317708  0.53231633  0.03283587    -0.76700
Al2293     Al  0.62086579  0.50663844  0.06846466     1.49000
C2294       C  0.64850868  0.52229732  0.00445518     0.90700
O2295       O  0.60777122  0.92272300  0.99335064    -0.82900
O2296       O  0.56244570  0.90491384  0.03952829    -0.76400
Al2297     Al  0.59336045  0.97379692  0.00586314     1.90100
O2298       O  0.63187208  0.89950127  0.03620413    -0.75500
O2299       O  0.56939445  0.93991311  0.09355673    -0.75400
O2300       O  0.64222920  0.92713411  0.09164100    -0.81000
O2301       O  0.59844571  0.99072429  0.10839635    -0.79200
O2302       O  0.60526143  0.96751289  0.04605062    -1.15400
O2303       O  0.58090344  0.53447419  0.06200555    -0.74600
C2304       C  0.57072186  0.54611161  0.03562130     0.96200
C2305       C  0.62243161  0.89561378  0.00821908     0.92600
Al2306     Al  0.60157750  0.92181677  0.06427770     1.55600
O2307       O  0.63690353  0.49120671  0.99411828    -0.79200
C2308       C  0.57311604  0.96755765  0.11205254     0.96700
C2309       C  0.54439300  0.92111327  0.01853789     0.91600
O2310       O  0.54828082  0.95620847  0.01257101    -0.84500
O2311       O  0.54708693  0.52643511  0.24119580    -0.84000
C2312       C  0.95460235  0.94763585  0.16579405     0.95400
O2313       O  0.95894780  0.98139377  0.17578844    -0.73100
O2314       O  0.98010919  0.53209228  0.21922663    -0.76700
Al2315     Al  0.50240872  0.50644550  0.18359070     1.49000
C2316       C  0.97478755  0.52205951  0.24760278     0.90700
O2317       O  0.51553331  0.92248681  0.25865192    -0.82900
O2318       O  0.56091232  0.90472820  0.21247264    -0.76400
Al2319     Al  0.52994475  0.97357236  0.24617080     1.90100
O2320       O  0.49149794  0.89924599  0.21577050    -0.75500
O2321       O  0.55394809  0.93983560  0.15845540    -0.75400
O2322       O  0.98109962  0.92695221  0.16036911    -0.81000
O2323       O  0.52480513  0.99059353  0.14364748    -0.79200
O2324       O  0.51804658  0.96731141  0.20598234    -1.15400
O2325       O  0.54235496  0.53429193  0.19003848    -0.74600
C2326       C  0.55255903  0.54591183  0.21641803     0.96200
C2327       C  0.50089984  0.89536976  0.24376820     0.92600
Al2328     Al  0.52177198  0.92164135  0.18772107     1.55600
O2329       O  0.48639701  0.49096564  0.25792564    -0.79200
C2330       C  0.55018676  0.96750498  0.13998515     0.96700
C2331       C  0.57893164  0.92090593  0.23349853     0.91600
O2332       O  0.57503237  0.95599541  0.23947549    -0.84500
O2333       O  0.92322252  0.79750559  0.26253344    -0.84000
C2334       C  0.54369716  0.80589319  0.33617130     0.95400
O2335       O  0.51721306  0.82660350  0.34157093    -0.73100
O2336       O  0.00678171  0.85424664  0.28615245    -0.76700
Al2337     Al  0.97652555  0.83189550  0.31424073     1.49000
C2338       C  0.99734965  0.85812421  0.25816396     0.90700
O2339       O  0.01184567  0.76252862  0.24403680    -0.82900
O2340       O  0.95591159  0.71924186  0.31196093    -0.76400
Al2341     Al  0.96830357  0.77992917  0.25581024     1.90100
O2342       O  0.51815916  0.72143356  0.28275840    -0.75500
O2343       O  0.97348575  0.76296670  0.35834598    -0.75400
O2344       O  0.53933634  0.77213334  0.32618734    -0.81000
O2345       O  0.94437430  0.81375599  0.34355595    -0.79200
O2346       O  0.98022522  0.78621175  0.29599682    -1.15400
O2347       O  0.93736956  0.84878680  0.28951122    -0.74600
C2348       C  0.91933347  0.83259879  0.26850301     0.96200
C2349       C  0.52347797  0.73145197  0.25437786     0.92600
Al2350     Al  0.99586564  0.74708955  0.31839593     1.55600
O2351       O  0.98269769  0.83100912  0.24329564    -0.79200
C2352       C  0.94814267  0.78610041  0.36204089     0.96700
C2353       C  0.94571199  0.70760514  0.28558354     0.91600
O2354       O  0.95117516  0.72707316  0.26080223    -0.84500
O2355       O  0.95013812  0.79741224  0.48952670    -0.84000
C2356       C  0.82968553  0.80580728  0.41585596     0.95400
O2357       O  0.85616715  0.82652501  0.41046929    -0.73100
O2358       O  0.86656052  0.85412912  0.46590268    -0.76700
Al2359     Al  0.89683836  0.83181759  0.43781559     1.49000
C2360       C  0.87599904  0.85801146  0.49388810     0.90700
O2361       O  0.86151292  0.76242195  0.50798009    -0.82900
O2362       O  0.91748666  0.71916925  0.44006941    -0.76400
Al2363     Al  0.90505654  0.77982746  0.49623056     1.90100
O2364       O  0.85522334  0.72133106  0.46925161    -0.75500
O2365       O  0.89992217  0.76291819  0.39368634    -0.75400
O2366       O  0.83405058  0.77204193  0.42582804    -0.81000
O2367       O  0.92900407  0.81371792  0.40850314    -0.79200
O2368       O  0.89314967  0.78612319  0.45604105    -1.15400
O2369       O  0.93598259  0.84870337  0.46256103    -0.74600
C2370       C  0.95402434  0.83250857  0.48356225     0.96200
C2371       C  0.84989089  0.73134474  0.49763265     0.92600
Al2372     Al  0.87752727  0.74700845  0.43362593     1.55600
O2373       O  0.89065568  0.83089907  0.50875532    -0.79200
C2374       C  0.92524994  0.78607719  0.39000222     0.96700
C2375       C  0.92766803  0.70752004  0.46644977     0.91600
O2376       O  0.92218960  0.72697569  0.49123318    -0.84500
O2377       O  0.79723121  0.52658224  0.74119211    -0.84000
C2378       C  0.70472040  0.94778280  0.66579495     0.95400
O2379       O  0.70908414  0.98154756  0.67577071    -0.73100
O2380       O  0.73026447  0.53225349  0.71920817    -0.76700
Al2381     Al  0.75256862  0.50657219  0.68357807     1.49000
C2382       C  0.72493739  0.52223833  0.74759112     0.90700
O2383       O  0.76567267  0.92266001  0.75869010    -0.82900
O2384       O  0.81098695  0.90484242  0.71251018    -0.76400
Al2385     Al  0.78008392  0.97373231  0.74617661     1.90100
O2386       O  0.74155828  0.89944690  0.71583926    -0.75500
O2387       O  0.80403598  0.93984434  0.65848766    -0.75400
O2388       O  0.73120473  0.92707332  0.66039971    -0.81000
O2389       O  0.77498004  0.99065248  0.64364577    -0.79200
O2390       O  0.76817495  0.96744809  0.70599127    -1.15400
O2391       O  0.79253334  0.53440448  0.69003052    -0.74600
C2392       C  0.80271917  0.54604366  0.71641227     0.96200
C2393       C  0.75101077  0.89555176  0.74382064     0.92600
Al2394     Al  0.77185428  0.92175203  0.68776452     1.55600
O2395       O  0.73654352  0.49114975  0.75792969    -0.79200
C2396       C  0.80030799  0.96748533  0.63998872     0.96700
C2397       C  0.82904729  0.92104259  0.73349398     0.91600
O2398       O  0.82516187  0.95613796  0.73946104    -0.84500
O2399       O  0.82628060  0.52632457  0.51083935    -0.84000
C2400       C  0.91879721  0.94754057  0.58623252     0.95400
O2401       O  0.91445073  0.98129309  0.57622523    -0.73100
O2402       O  0.89327368  0.53198666  0.53278566    -0.76700
Al2403     Al  0.87098856  0.50634700  0.56843097     1.49000
C2404       C  0.89858041  0.52195645  0.50440770     0.90700
O2405       O  0.85783043  0.92237683  0.49338929    -0.82900
O2406       O  0.81246466  0.90461822  0.53958067    -0.76400
Al2407     Al  0.84342273  0.97346334  0.50586563     1.90100
O2408       O  0.88188016  0.89914340  0.53626793    -0.75500
O2409       O  0.81945243  0.93974858  0.59358820    -0.75400
O2410       O  0.89229937  0.92685799  0.59166265    -0.81000
O2411       O  0.84860964  0.99050404  0.60838108    -0.79200
O2412       O  0.85533903  0.96720975  0.54605002    -1.15400
O2413       O  0.83104095  0.53419683  0.56199279    -0.74600
C2414       C  0.82082154  0.54580890  0.53561634     0.96200
C2415       C  0.87246478  0.89526091  0.50827487     0.92600
Al2416     Al  0.85161661  0.92154314  0.56432026     1.55600
O2417       O  0.88696608  0.49086304  0.49408818    -0.79200
C2418       C  0.82322501  0.96742186  0.61205261     0.96700
C2419       C  0.79443766  0.92079342  0.51855772     0.91600
O2420       O  0.79833739  0.95588444  0.51258132    -0.84500
O2421       O  0.67337713  0.79768709  0.76255099    -0.84000
C2422       C  0.79381546  0.80604750  0.83619968     0.95400
O2423       O  0.76733740  0.82676545  0.84160470    -0.73100
O2424       O  0.75695305  0.85439836  0.78617995    -0.76700
Al2425     Al  0.72666962  0.83207719  0.81426100     1.49000
C2426       C  0.74750528  0.85829270  0.75819768     0.90700
O2427       O  0.76200377  0.76269558  0.74407353    -0.82900
O2428       O  0.70600232  0.71942540  0.81197011    -0.76400
Al2429     Al  0.71845580  0.78010480  0.75583273     1.90100
O2430       O  0.76828180  0.72158756  0.78279125    -0.75500
O2431       O  0.72352754  0.76314663  0.85837389    -0.75400
O2432       O  0.78943978  0.77227877  0.82624321    -0.81000
O2433       O  0.69448968  0.81397656  0.84356459    -0.79200
O2434       O  0.73035562  0.78638459  0.79602414    -1.15400
O2435       O  0.68752941  0.84897781  0.78951869    -0.74600
C2436       C  0.66948967  0.83278263  0.76851718     0.96200
C2437       C  0.77361557  0.73160637  0.75440853     0.92600
Al2438     Al  0.74596059  0.74725560  0.81843088     1.55600
O2439       O  0.73285586  0.83118089  0.74332434    -0.79200
C2440       C  0.69819757  0.78631130  0.86204758     0.96700
C2441       C  0.69582803  0.70778819  0.78558571     0.91600
O2442       O  0.70131876  0.72725140  0.76080891    -0.84500
O2443       O  0.70008055  0.79774427  0.98947329    -0.84000
C2444       C  0.57963710  0.80610855  0.91583784     0.95400
O2445       O  0.60611685  0.82681883  0.91042609    -0.73100
O2446       O  0.61652056  0.85447450  0.96584359    -0.76700
Al2447     Al  0.64679168  0.83212731  0.93776254     1.49000
C2448       C  0.62595727  0.85835976  0.99383045     0.90700
O2449       O  0.61145460  0.76275731  0.00797198    -0.82900
O2450       O  0.66743200  0.71947440  0.94006559    -0.76400
Al2451     Al  0.65500216  0.78016510  0.99619996     1.90100
O2452       O  0.60516097  0.72165332  0.96925435    -0.75500
O2453       O  0.64990546  0.76318151  0.89366349    -0.75400
O2454       O  0.58400686  0.77234088  0.92580198    -0.81000
O2455       O  0.67896568  0.81400012  0.90845922    -0.79200
O2456       O  0.64309545  0.78644073  0.95601004    -1.15400
O2457       O  0.68593405  0.84902834  0.96249602    -0.74600
C2458       C  0.70396939  0.83283812  0.98350280     0.96200
C2459       C  0.59983162  0.73167268  0.99763702     0.92600
Al2460     Al  0.62747938  0.74730983  0.93361070     1.55600
O2461       O  0.64060386  0.83124570  0.00870354    -0.79200
C2462       C  0.67524834  0.78632692  0.88998595     0.96700
C2463       C  0.67761573  0.70783898  0.96644679     0.91600
O2464       O  0.67213630  0.72730861  0.99122428    -0.84500
O2465       O  0.82621155  0.77664929  0.01083164    -0.84000
C2466       C  0.91870569  0.69784545  0.08623481     0.95400
O2467       O  0.91434164  0.73161258  0.07626637    -0.73100
O2468       O  0.89317070  0.78231866  0.03282757    -0.76700
Al2469     Al  0.87085864  0.75663703  0.06845415     1.49000
C2470       C  0.89850687  0.77229992  0.00444685     0.90700
O2471       O  0.85777151  0.67272512  0.99333710    -0.82900
O2472       O  0.81244203  0.65491411  0.03951383    -0.76400
Al2473     Al  0.84335859  0.72379790  0.00584952     1.90100
O2474       O  0.88186844  0.64950407  0.03619278    -0.75500
O2475       O  0.81938583  0.68991166  0.09354480    -0.75400
O2476       O  0.89222200  0.67713476  0.09163018    -0.81000
O2477       O  0.84843899  0.74072052  0.10838592    -0.79200
O2478       O  0.85525628  0.71751271  0.04603832    -1.15400
O2479       O  0.83089530  0.78446812  0.06199464    -0.74600
C2480       C  0.82071703  0.79610820  0.03561151     0.96200
C2481       C  0.87242944  0.64561521  0.00820729     0.92600
Al2482     Al  0.85157164  0.67181704  0.06426520     1.55600
O2483       O  0.88690294  0.74121172  0.99410771    -0.79200
C2484       C  0.82311018  0.71755474  0.11204344     0.96700
C2485       C  0.79439098  0.67111121  0.01852216     0.91600
O2486       O  0.79827865  0.70620606  0.01255205    -0.84500
O2487       O  0.79708682  0.77643776  0.24119313    -0.84000
C2488       C  0.70459980  0.69763424  0.16579543     0.95400
O2489       O  0.70894727  0.73139427  0.17578765    -0.73100
O2490       O  0.73011047  0.78209401  0.21922275    -0.76700
Al2491     Al  0.75240918  0.75644537  0.18358813     1.49000
C2492       C  0.72478635  0.77206231  0.24759921     0.90700
O2493       O  0.76553386  0.67248918  0.25865363    -0.82900
O2494       O  0.81091557  0.65473113  0.21247351    -0.76400
Al2495     Al  0.77994456  0.72357499  0.24617034     1.90100
O2496       O  0.74150008  0.64924811  0.21577237    -0.75500
O2497       O  0.80394695  0.68983352  0.15845099    -0.75400
O2498       O  0.73109651  0.67694981  0.16037199    -0.81000
O2499       O  0.77480330  0.74059136  0.14364394    -0.79200
O2500       O  0.76804779  0.71731238  0.20598112    -1.15400
O2501       O  0.79235654  0.78429227  0.19003525    -0.74600
C2502       C  0.80256021  0.79591246  0.21641482     0.96200
C2503       C  0.75090181  0.64537223  0.24376991     0.92600
Al2504     Al  0.77177279  0.67164162  0.18772144     1.55600
O2505       O  0.73639583  0.74096834  0.25792273    -0.79200
C2506       C  0.80018342  0.71750086  0.13997863     0.96700
C2507       C  0.82893471  0.67090741  0.23350183     0.91600
O2508       O  0.82503285  0.70599789  0.23947884    -0.84500
O2509       O  0.70013592  0.54740251  0.48952001    -0.84000
C2510       C  0.57968151  0.55580167  0.41585341     0.95400
O2511       O  0.60616449  0.57651686  0.41046342    -0.73100
O2512       O  0.61656414  0.60413012  0.46589202    -0.76700
Al2513     Al  0.64683876  0.58180913  0.43780695     1.49000
C2514       C  0.62599988  0.60801424  0.49387767     0.90700
O2515       O  0.61150857  0.51242733  0.50797628    -0.82900
O2516       O  0.66748088  0.96916016  0.44007010    -0.76400
Al2517     Al  0.65505341  0.52982581  0.49622587     1.90100
O2518       O  0.60521915  0.97132929  0.46925303    -0.75500
O2519       O  0.64991717  0.51290396  0.39368166    -0.75400
O2520       O  0.58404675  0.52203564  0.42582599    -0.81000
O2521       O  0.67900238  0.56370204  0.40849529    -0.79200
O2522       O  0.64314678  0.53611740  0.45603614    -1.15400
O2523       O  0.68598581  0.59869256  0.46255088    -0.74600
C2524       C  0.70402516  0.58249730  0.48355344     0.96200
C2525       C  0.59988862  0.98134747  0.49763321     0.92600
Al2526     Al  0.62752245  0.49700083  0.43362430     1.55600
O2527       O  0.64065623  0.58090177  0.50874655    -0.79200
C2528       C  0.67524606  0.53606133  0.38999613     0.96700
C2529       C  0.67766355  0.95751387  0.46645034     0.91600
O2530       O  0.67218358  0.97697133  0.49123349    -0.84500
O2531       O  0.67322378  0.54750386  0.26252460    -0.84000
C2532       C  0.79369416  0.55588453  0.33616750     0.95400
O2533       O  0.76720887  0.57659215  0.34156879    -0.73100
O2534       O  0.75677884  0.60424605  0.28615389    -0.76700
Al2535     Al  0.72652216  0.58188773  0.31423780     1.49000
C2536       C  0.74735034  0.60812672  0.25816419     0.90700
O2537       O  0.76184804  0.51252948  0.24402776    -0.82900
O2538       O  0.70591054  0.96923786  0.31194621    -0.76400
Al2539     Al  0.71830514  0.52992962  0.25580148     1.90100
O2540       O  0.76815869  0.97143089  0.28274712    -0.75500
O2541       O  0.72348263  0.51295288  0.35833704    -0.75400
O2542       O  0.78933384  0.52212456  0.32618016    -0.81000
O2543       O  0.69436893  0.56374087  0.34354940    -0.79200
O2544       O  0.73022472  0.53620694  0.29598905    -1.15400
O2545       O  0.68736753  0.59878131  0.28950856    -0.74600
C2546       C  0.66933274  0.58259586  0.26849799     0.96200
C2547       C  0.77347943  0.98145237  0.25436717     0.92600
Al2548     Al  0.74586407  0.49708253  0.31838550     1.55600
O2549       O  0.73269990  0.58101091  0.24329321    -0.79200
C2550       C  0.69813743  0.53608531  0.36203209     0.96700
C2551       C  0.69571166  0.95760437  0.28556883     0.91600
O2552       O  0.70117575  0.97707237  0.26078795    -0.84500
O2553       O  0.54722819  0.77658418  0.74118864    -0.84000
C2554       C  0.95471238  0.69779094  0.66578815     0.95400
O2555       O  0.95907811  0.73155514  0.67576388    -0.73100
O2556       O  0.98026069  0.78225565  0.71920572    -0.76700
Al2557     Al  0.50256352  0.75658070  0.68357273     1.49000
C2558       C  0.97493684  0.77223819  0.74758800     0.90700
O2559       O  0.51567400  0.67265882  0.75867783    -0.82900
O2560       O  0.56098832  0.65485013  0.71249514    -0.76400
Al2561     Al  0.53008268  0.72373369  0.74616778     1.90100
O2562       O  0.49155961  0.64944764  0.71582670    -0.75500
O2563       O  0.55403008  0.68985694  0.65847380    -0.75400
O2564       O  0.98119723  0.67708097  0.66039118    -0.81000
O2565       O  0.52497500  0.74066756  0.64363750    -0.79200
O2566       O  0.51817166  0.71745404  0.70598221    -1.15400
O2567       O  0.54252797  0.78441571  0.69002819    -0.74600
C2568       C  0.55271624  0.79604836  0.71641095     0.96200
C2569       C  0.50101203  0.64555189  0.74380770     0.92600
Al2570     Al  0.52185164  0.67175981  0.68775213     1.55600
O2571       O  0.48654259  0.74114703  0.75792353    -0.79200
C2572       C  0.55030218  0.71749936  0.63997741     0.96700
C2573       C  0.57904819  0.67105000  0.73348072     0.91600
O2574       O  0.57516084  0.70614453  0.73944819    -0.84500
O2575       O  0.57627803  0.77633287  0.51082592    -0.84000
C2576       C  0.66878941  0.69754282  0.58621944     0.95400
O2577       O  0.66444650  0.73129518  0.57620999    -0.73100
O2578       O  0.64327222  0.78198860  0.53277039    -0.76700
Al2579     Al  0.62098676  0.75635231  0.56841668     1.49000
C2580       C  0.64857840  0.77195865  0.50439241     0.90700
O2581       O  0.60782525  0.67237907  0.49337808    -0.82900
O2582       O  0.56245812  0.65462969  0.53957113    -0.76400
Al2583     Al  0.59341849  0.72346901  0.50585217     1.90100
O2584       O  0.63187076  0.64914606  0.53625944    -0.75500
O2585       O  0.56944301  0.68976371  0.59357454    -0.75400
O2586       O  0.64228968  0.67686499  0.59165250    -0.81000
O2587       O  0.59860693  0.74051350  0.60836843    -0.79200
O2588       O  0.60533460  0.71721625  0.54603682    -1.15400
O2589       O  0.58104173  0.78420280  0.56197928    -0.74600
C2590       C  0.57082179  0.79581522  0.53560416     0.96200
C2591       C  0.62245930  0.64526307  0.50826422     0.92600
Al2592     Al  0.60160802  0.67155204  0.56430950     1.55600
O2593       O  0.63696168  0.74086475  0.49407308    -0.79200
C2594       C  0.57321812  0.71743680  0.61204002     0.96700
C2595       C  0.54443320  0.67080498  0.51854787     0.91600
O2596       O  0.54833300  0.70589413  0.51256903    -0.84500
O2597       O  0.92337455  0.54768601  0.76253214    -0.84000
C2598       C  0.54380353  0.55605245  0.83618981     0.95400
O2599       O  0.51732536  0.57676773  0.84159461    -0.73100
O2600       O  0.00694393  0.60440079  0.78617021    -0.76700
Al2601     Al  0.97665930  0.58207710  0.81424905     1.49000
C2602       C  0.99750183  0.60829265  0.75818585     0.90700
O2603       O  0.01200438  0.51269431  0.74406472    -0.82900
O2604       O  0.95599741  0.96942908  0.81196030    -0.76400
Al2605     Al  0.96845428  0.53010308  0.75581993     1.90100
O2606       O  0.51827830  0.97158828  0.78278407    -0.75500
O2607       O  0.97351981  0.51314942  0.85836348    -0.75400
O2608       O  0.53943084  0.52228220  0.82623361    -0.81000
O2609       O  0.94447688  0.56397400  0.84355147    -0.79200
O2610       O  0.98034936  0.53638524  0.79601242    -1.15400
O2611       O  0.93752215  0.59897475  0.78950472    -0.74600
C2612       C  0.91948487  0.58277996  0.76850081     0.96200
C2613       C  0.52361649  0.98160622  0.75440208     0.92600
Al2614     Al  0.99595417  0.49725789  0.81842122     1.55600
O2615       O  0.98285518  0.58118015  0.74331168    -0.79200
C2616       C  0.94818843  0.53631054  0.86203633     0.96700
C2617       C  0.94582541  0.95778671  0.78557682     0.91600
O2618       O  0.95131734  0.97724846  0.76079776    -0.84500
O2619       O  0.95007515  0.54774508  0.98946943    -0.84000
C2620       C  0.82962795  0.55609988  0.91583184     0.95400
O2621       O  0.85610746  0.57681309  0.91042069    -0.73100
O2622       O  0.86651383  0.60447130  0.96583593    -0.76700
Al2623     Al  0.89678490  0.58212443  0.93775541     1.49000
C2624       C  0.87595217  0.60836009  0.99382175     0.90700
O2625       O  0.86144862  0.51275782  0.00796543    -0.82900
O2626       O  0.91743174  0.96947265  0.94006385    -0.76400
Al2627     Al  0.90499652  0.53016607  0.99619492     1.90100
O2628       O  0.85516007  0.97164931  0.96925043    -0.75500
O2629       O  0.89990100  0.51317677  0.89365739    -0.75400
O2630       O  0.83400126  0.52233279  0.92579595    -0.81000
O2631       O  0.92895804  0.56399887  0.90845035    -0.79200
O2632       O  0.89309080  0.53643873  0.95600404    -1.15400
O2633       O  0.93593035  0.59902772  0.96248956    -0.74600
C2634       C  0.95396533  0.58283925  0.98349760     0.96200
C2635       C  0.84982945  0.98167089  0.99763243     0.92600
Al2636     Al  0.87747657  0.49730532  0.93360619     1.55600
O2637       O  0.89059816  0.58124662  0.00869635    -0.79200
C2638       C  0.92523978  0.53632421  0.88997639     0.96700
C2639       C  0.92761517  0.95784080  0.96644595     0.91600
O2640       O  0.92213215  0.97731053  0.99122260    -0.84500
O2641       O  0.92326474  0.83122912  0.98951587    -0.84000
C2642       C  0.54372790  0.82284068  0.91586008     0.95400
O2643       O  0.51724496  0.80212583  0.91046756    -0.73100
O2644       O  0.00683940  0.77450564  0.96589494    -0.76700
Al2645     Al  0.97656881  0.79683070  0.93780823     1.49000
C2646       C  0.99739820  0.77061941  0.99387926     0.90700
O2647       O  0.01188917  0.86621026  0.00798919    -0.82900
O2648       O  0.95593085  0.90947904  0.94007355    -0.76400
Al2649     Al  0.96834623  0.84880846  0.99622932     1.90100
O2650       O  0.51818689  0.90730711  0.96926608    -0.75500
O2651       O  0.97350178  0.86573963  0.89368788    -0.75400
O2652       O  0.53936500  0.85660223  0.92583890    -0.81000
O2653       O  0.94440931  0.81494388  0.90849604    -0.79200
O2654       O  0.98026014  0.84252017  0.95604127    -1.15400
O2655       O  0.93741872  0.77994181  0.96254655    -0.74600
C2656       C  0.91937635  0.79613448  0.98354762     0.96200
C2657       C  0.52351236  0.89728896  0.99764690     0.92600
Al2658     Al  0.99588935  0.88163854  0.93363356     1.55600
O2659       O  0.98274284  0.79773169  0.00874848    -0.79200
C2660       C  0.94817132  0.84258643  0.88999945     0.96700
C2661       C  0.94573980  0.92112252  0.96645183     0.91600
O2662       O  0.95121497  0.90166217  0.99123565    -0.84500
O2663       O  0.95018921  0.83116938  0.76252277    -0.84000
C2664       C  0.82972570  0.82277822  0.83617427     0.95400
O2665       O  0.85621024  0.80206833  0.84157032    -0.73100
O2666       O  0.86663727  0.77442214  0.78615182    -0.76700
Al2667     Al  0.89689533  0.79677699  0.81423702     1.49000
C2668       C  0.87606410  0.77054676  0.75816094     0.90700
O2669       O  0.86156300  0.86614275  0.74403893    -0.82900
O2670       O  0.91751024  0.90942845  0.81195230    -0.76400
Al2671     Al  0.90510732  0.84874326  0.75580496     1.90100
O2672       O  0.85525828  0.90723926  0.78276041    -0.75500
O2673       O  0.89993950  0.86570577  0.85834211    -0.75400
O2674       O  0.83408577  0.85654029  0.82619082    -0.81000
O2675       O  0.92904962  0.81491781  0.84354887    -0.79200
O2676       O  0.89319205  0.84246064  0.79599323    -1.15400
O2677       O  0.93604794  0.77988895  0.78950524    -0.74600
C2678       C  0.95408109  0.79607720  0.76849425     0.96200
C2679       C  0.84993421  0.89721950  0.75438111     0.92600
Al2680     Al  0.87755597  0.88158275  0.81839409     1.55600
O2681       O  0.89071285  0.79766336  0.74329234    -0.79200
C2682       C  0.92528177  0.84257102  0.86203507     0.96700
C2683       C  0.92770433  0.92106559  0.78557350     0.91600
O2684       O  0.92223589  0.90159939  0.76079271    -0.84500
O2685       O  0.54711664  0.60230275  0.01083612    -0.84000
C2686       C  0.95460931  0.68109577  0.08622645     0.95400
O2687       O  0.95895514  0.64734086  0.07622451    -0.73100
O2688       O  0.98012842  0.59664289  0.03278800    -0.76700
Al2689     Al  0.50241771  0.62228799  0.06843007     1.49000
C2690       C  0.97481607  0.60667286  0.00440888     0.90700
O2691       O  0.51556446  0.70625133  0.99337815    -0.82900
O2692       O  0.56093209  0.72401175  0.03956453    -0.76400
Al2693     Al  0.52997342  0.65516470  0.00585830     1.90100
O2694       O  0.49151513  0.72948323  0.03625668    -0.75500
O2695       O  0.55395356  0.68889523  0.09357692    -0.75400
O2696       O  0.98110621  0.70177832  0.09165500    -0.81000
O2697       O  0.52480282  0.63813904  0.10837832    -0.79200
O2698       O  0.51806302  0.66142244  0.04604390    -1.15400
O2699       O  0.54236545  0.59443977  0.06199146    -0.74600
C2700       C  0.55258146  0.58282367  0.03561439     0.96200
C2701       C  0.50092996  0.73336800  0.00826352     0.92600
Al2702     Al  0.52178450  0.70709151  0.06430867     1.55600
O2703       O  0.48642895  0.63776613  0.99408849    -0.79200
C2704       C  0.55018408  0.66122547  0.11204595     0.96700
C2705       C  0.57895884  0.70783448  0.01854210     0.91600
O2706       O  0.57505917  0.67274371  0.01256680    -0.84500
O2707       O  0.57618069  0.60209090  0.24119215    -0.84000
C2708       C  0.66869612  0.68088621  0.16579426     0.95400
O2709       O  0.66433035  0.64712257  0.17577033    -0.73100
O2710       O  0.64314951  0.59642094  0.21921068    -0.76700
Al2711     Al  0.62084606  0.62209662  0.18357815     1.49000
C2712       C  0.64847449  0.60643615  0.24759405     0.90700
O2713       O  0.60773630  0.70601543  0.25868285    -0.82900
O2714       O  0.56242031  0.72382763  0.21250025    -0.76400
Al2715     Al  0.59332643  0.65494161  0.24617313     1.90100
O2716       O  0.63184906  0.72922693  0.21583058    -0.75500
O2717       O  0.56937678  0.68881807  0.15847699    -0.75400
O2718       O  0.64221114  0.70159602  0.16039574    -0.81000
O2719       O  0.59843440  0.63800860  0.14364293    -0.79200
O2720       O  0.60523699  0.66122255  0.20598730    -1.15400
O2721       O  0.58088266  0.59426247  0.19003169    -0.74600
C2722       C  0.57069569  0.58262675  0.21641422     0.96200
C2723       C  0.62239795  0.73312254  0.24381179     0.92600
Al2724     Al  0.60155643  0.70691649  0.18775636     1.55600
O2725       O  0.63686659  0.63752603  0.25793038    -0.79200
C2726       C  0.57310483  0.66117318  0.13998300     0.96700
C2727       C  0.54436211  0.70762830  0.23348704     0.91600
O2728       O  0.54824823  0.67253381  0.23945424    -0.84500
O2729       O  0.70003900  0.83098502  0.26253672    -0.84000
C2730       C  0.57960771  0.82262353  0.33619471     0.95400
O2731       O  0.60608524  0.80190588  0.34159717    -0.73100
O2732       O  0.61646284  0.77427548  0.28617136    -0.76700
Al2733     Al  0.64674996  0.79659377  0.31425007     1.49000
C2734       C  0.62590763  0.77038083  0.25818858     0.90700
O2735       O  0.61141072  0.86597593  0.24406727    -0.82900
O2736       O  0.66741983  0.90924109  0.31195922    -0.76400
Al2737     Al  0.65495980  0.84856746  0.25582199     1.90100
O2738       O  0.60513804  0.90708353  0.28278582    -0.75500
O2739       O  0.64989645  0.86552065  0.35836395    -0.75400
O2740       O  0.58398245  0.85639338  0.32623749    -0.81000
O2741       O  0.67893315  0.81469195  0.34355058    -0.79200
O2742       O  0.64306351  0.84228628  0.29601429    -1.15400
O2743       O  0.68588702  0.77969420  0.28950546    -0.74600
C2744       C  0.70392769  0.79589020  0.26850455     0.96200
C2745       C  0.59980055  0.89706387  0.25440450     0.92600
Al2746     Al  0.62746162  0.88141440  0.31842280     1.55600
O2747       O  0.64055862  0.79749151  0.24331441    -0.79200
C2748       C  0.67522549  0.84235459  0.36203644     0.96700
C2749       C  0.67759019  0.92088404  0.28557479     0.91600
O2750       O  0.67209646  0.90142091  0.26079656    -0.84500
O2751       O  0.67331683  0.83088507  0.48945238    -0.84000
C2752       C  0.79377537  0.82253751  0.41583772     0.95400
O2753       O  0.76729592  0.80182724  0.41041988    -0.73100
O2754       O  0.75687776  0.77415459  0.46582991    -0.76700
Al2755     Al  0.72661434  0.79651306  0.43774860     1.49000
C2756       C  0.74743705  0.77026369  0.49381511     0.90700
O2757       O  0.76194024  0.86586922  0.50797969    -0.82900
O2758       O  0.70597818  0.90916584  0.44006686    -0.76400
Al2759     Al  0.71839422  0.84846144  0.49619326     1.90100
O2760       O  0.76824299  0.90697794  0.46926636    -0.75500
O2761       O  0.72351431  0.86547133  0.39366134    -0.75400
O2762       O  0.78940461  0.85630065  0.42580878    -0.81000
O2763       O  0.69444753  0.81465171  0.40844439    -0.79200
O2764       O  0.73031017  0.84219480  0.45600495    -1.15400
O2765       O  0.68746471  0.77960459  0.46247350    -0.74600
C2766       C  0.66942759  0.79579385  0.48347943     0.96200
C2767       C  0.77356634  0.89695457  0.49764906     0.92600
Al2768     Al  0.74593165  0.88133126  0.43361497     1.55600
O2769       O  0.73278908  0.79737713  0.50868995    -0.79200
C2770       C  0.69817035  0.84233017  0.38997637     0.96700
C2771       C  0.69578671  0.92079373  0.46644723     0.91600
O2772       O  0.70126112  0.90131907  0.49122317    -0.84500
O2773       O  0.82632879  0.60223541  0.74119131    -0.84000
C2774       C  0.91880878  0.68104094  0.66578894     0.95400
O2775       O  0.91446363  0.64728107  0.67578096    -0.73100
O2776       O  0.89330543  0.59657926  0.71921807    -0.76700
Al2777     Al  0.87100380  0.62222647  0.68358394     1.49000
C2778       C  0.89862826  0.60661042  0.74759369     0.90700
O2779       O  0.85788189  0.70618298  0.75864718    -0.82900
O2780       O  0.81249364  0.72393971  0.71246734    -0.76400
Al2781     Al  0.84347077  0.65509786  0.74616607     1.90100
O2782       O  0.88190644  0.72943082  0.71576339    -0.75500
O2783       O  0.81945917  0.68883092  0.65844603    -0.75400
O2784       O  0.89231098  0.70172353  0.66036406    -0.81000
O2785       O  0.84860616  0.63807538  0.64364073    -0.79200
O2786       O  0.85536461  0.66135995  0.70597637    -1.15400
O2787       O  0.83105886  0.59437727  0.69003378    -0.74600
C2788       C  0.82085576  0.58275793  0.71641392     0.96200
C2789       C  0.87251033  0.73330306  0.74376236     0.92600
Al2790     Al  0.85163485  0.70702973  0.68771415     1.55600
O2791       O  0.88702042  0.63770476  0.75791712    -0.79200
C2792       C  0.82322198  0.66115937  0.63997617     0.96700
C2793       C  0.79447955  0.70776403  0.73349948     0.91600
O2794       O  0.79838193  0.67267424  0.73947653    -0.84500
O2795       O  0.79718685  0.60198031  0.51083874    -0.84000
C2796       C  0.70469161  0.68079149  0.58623411     0.95400
O2797       O  0.70905701  0.64702192  0.57627104    -0.73100
O2798       O  0.73022853  0.59631171  0.53283573    -0.76700
Al2799     Al  0.75254198  0.62199804  0.56846071     1.49000
C2800       C  0.72489301  0.60632981  0.50445432     0.90700
O2801       O  0.76562491  0.70590132  0.49333382    -0.82900
O2802       O  0.81094947  0.72372082  0.53950585    -0.76400
Al2803     Al  0.78003958  0.65483050  0.50585214     1.90100
O2804       O  0.74151990  0.72912006  0.53618583    -0.75500
O2805       O  0.80400963  0.68873695  0.59354147    -0.75400
O2806       O  0.73117485  0.70150246  0.59162805    -0.81000
O2807       O  0.77496563  0.63792388  0.60839004    -0.79200
O2808       O  0.76814213  0.66111992  0.54604045    -1.15400
O2809       O  0.79250565  0.59416496  0.56200263    -0.74600
C2810       C  0.80268333  0.58252164  0.53561970     0.96200
C2811       C  0.75096124  0.73300987  0.50820040     0.92600
Al2812     Al  0.77182170  0.70681946  0.56426036     1.55600
O2813       O  0.73649645  0.63741722  0.49411414    -0.79200
C2814       C  0.80029088  0.66109679  0.61204412     0.96700
C2815       C  0.82900471  0.70752016  0.51851839     0.91600
O2816       O  0.82511941  0.67242484  0.51255219    -0.84500
loop_ 
_geom_bond_atom_site_label_1 
_geom_bond_atom_site_label_2 
_geom_bond_distance 
_geom_bond_site_symmetry_2 
_ccdc_geom_bond_type 
O1           C16   1.258       .  A
O1           Al9   1.868       .  S
C2           O12   1.262       .  A
C2            O3   1.273       .  A
C2          C398   1.505       .  S
O3        Al1413   1.963   1_455  S
O4            C6   1.252       .  A
O4           Al5   1.844       .  S
Al5          O13   1.870       .  S
Al5          O15   1.934       .  S
Al5        O1411   1.963       .  S
Al5          O14   1.777       .  S
C6           O19   1.270       .  A
C6         C2283   1.442   1_545  S
O7         C1425   1.253       .  A
O7           Al9   1.857       .  S
O8           C21   1.256       .  A
O8          Al18   1.844       .  S
Al9          O22   1.969       .  S
Al9          O19   1.940       .  S
Al9          O14   1.783       .  S
O10          C17   1.273       .  A
O10       Al1426   1.960   1_455  S
O11          C20   1.278       .  A
O11         Al18   1.985       .  S
O12       Al1426   1.922   1_455  S
O13          C20   1.252       .  A
O14         Al18   1.770       .  S
O15          C16   1.266       .  A
C16         C292   1.459       .  S
C17        O1415   1.253       .  A
C17         C483   1.460       .  S
Al18       O1418   1.960       .  S
Al18       O1420   1.922       .  S
C20          C42   1.482       .  S
C21          O22   1.271       .  A
C21         C263   1.459       .  S
O23          C38   1.259       .  A
O23         Al31   1.868       .  S
C24          O34   1.262       .  A
C24          O25   1.273       .  A
C24         C420   1.505       .  S
O25         Al27   1.963       .  S
O26          C28   1.252       .  A
O26         Al27   1.844       .  S
Al27         O35   1.870       .  S
Al27         O37   1.934       .  S
Al27         O36   1.777       .  S
C28          O41   1.270       .  A
C28         C787   1.442   1_545  S
O29          C39   1.253       .  A
O29         Al31   1.857       .  S
O30          C43   1.256       .  A
O30         Al40   1.844       .  S
Al31         O44   1.969       .  S
Al31         O41   1.940       .  S
Al31         O36   1.783       .  S
O32          C39   1.273       .  A
O32         Al40   1.960       .  S
O33          C42   1.278       .  A
O33         Al40   1.985       .  S
O34         Al40   1.922       .  S
O35          C42   1.252       .  A
O36         Al40   1.770       .  S
O37          C38   1.266       .  A
C38         C204   1.459       .  S
C39         C395   1.460       .  S
C43          O44   1.271       .  A
C43         C241   1.459       .  S
O45          C60   1.271       .  A
O45         Al53   1.970       .  S
C46          O56   1.273       .  A
C46          O47   1.262       .  A
C46         C178   1.505       .  S
O47         Al49   1.921       .  S
O48          C50   1.273       .  A
O48         Al49   1.959       .  S
Al49         O57   1.984       .  S
Al49         O59   1.844       .  S
Al49         O58   1.770       .  S
C50          O63   1.253   1_554  A
C50         C346   1.459   1_554  S
O51          C61   1.270   1_556  A
O51         Al53   1.940   1_556  S
O52          C65   1.266       .  A
O52         Al62   1.934       .  S
Al53         O66   1.868       .  S
Al53         O63   1.857   1_554  S
Al53         O58   1.783       .  S
O54          C61   1.252       .  A
O54         Al62   1.844       .  S
O55          C64   1.252       .  A
O55         Al62   1.870       .  S
O56         Al62   1.964       .  S
O57          C64   1.278       .  A
O58         Al62   1.777       .  S
O59          C60   1.256       .  A
C60         C368   1.459       .  S
C61         C820   1.442   1_554  S
C64          C86   1.482       .  S
C65          O66   1.259       .  A
C65         C523   1.460   1_554  S
O67          C82   1.271       .  A
O67         Al75   1.969       .  S
C68          O78   1.273       .  A
C68          O69   1.262       .  A
C68         C200   1.505       .  S
O69         Al71   1.922       .  S
O70          C72   1.273       .  A
O70         Al71   1.959       .  S
Al71         O79   1.985       .  S
Al71         O81   1.844       .  S
Al71         O80   1.770       .  S
C72          O85   1.253       .  A
C72         C236   1.459       .  S
O73          C83   1.270       .  A
O73         Al75   1.940       .  S
O74          C87   1.266       .  A
O74         Al84   1.934       .  S
Al75         O88   1.868       .  S
Al75         O85   1.857       .  S
Al75         O80   1.783       .  S
O76          C83   1.252       .  A
O76         Al84   1.844       .  S
O77          C86   1.252       .  A
O77         Al84   1.869       .  S
O78         Al84   1.963       .  S
O79          C86   1.278       .  A
O80         Al84   1.777       .  S
O81          C82   1.256       .  A
C82         C390   1.459       .  S
C83         C732   1.442       .  S
C87          O88   1.259       .  A
C87         C435   1.459       .  S
O89         C104   1.258       .  A
O89         Al97   1.868       .  S
C90         O100   1.262       .  A
C90          O91   1.273       .  A
C90         C486   1.505       .  S
O91         Al93   1.963       .  S
O92          C94   1.252       .  A
O92         Al93   1.844       .  S
Al93        O101   1.870       .  S
Al93        O103   1.934       .  S
Al93        O102   1.777       .  S
C94         O107   1.270       .  A
C94         C853   1.442   1_545  S
O95         C105   1.253       .  A
O95         Al97   1.857       .  S
O96         C109   1.256       .  A
O96        Al106   1.844       .  S
Al97        O110   1.969       .  S
Al97        O107   1.940       .  S
Al97        O102   1.783       .  S
O98         C105   1.273       .  A
O98        Al106   1.959       .  S
O99         C108   1.278       .  A
O99        Al106   1.985       .  S
O100       Al106   1.922       .  S
O101        C108   1.252       .  A
O102       Al106   1.770       .  S
O103        C104   1.266       .  A
C104        C270   1.459       .  S
C105        C461   1.459       .  S
C108        C130   1.482       .  S
C109        O110   1.271       .  A
C109        C329   1.459       .  S
O111        C126   1.258       .  A
O111       Al119   1.868       .  S
C112        O122   1.262       .  A
C112        O113   1.273       .  A
C112        C508   1.505       .  S
O113       Al115   1.963       .  S
O114        C116   1.252       .  A
O114       Al115   1.844       .  S
Al115       O123   1.870       .  S
Al115       O125   1.934       .  S
Al115       O124   1.777       .  S
C116        O129   1.270   1_556  A
C116        C765   1.442   1_546  S
O117        C127   1.253   1_554  A
O117       Al119   1.857   1_554  S
O118        C131   1.256       .  A
O118       Al128   1.844       .  S
Al119       O132   1.969       .  S
Al119       O129   1.940   1_556  S
Al119       O124   1.783       .  S
O120        C127   1.273       .  A
O120       Al128   1.959       .  S
O121        C130   1.278       .  A
O121       Al128   1.985       .  S
O122       Al128   1.922       .  S
O123        C130   1.252       .  A
O124       Al128   1.770       .  S
O125        C126   1.266       .  A
C126        C182   1.459   1_556  S
C127        C373   1.459   1_556  S
C131        O132   1.271       .  A
C131        C351   1.459       .  S
O133        C148   1.271       .  A
O133       Al141   1.970       .  S
C134        O144   1.273       .  A
C134        O135   1.262       .  A
C134        C266   1.505       .  S
O135       Al137   1.921       .  S
O136        C138   1.273       .  A
O136       Al137   1.959       .  S
Al137       O145   1.985       .  S
Al137       O147   1.844       .  S
Al137       O146   1.770       .  S
C138        O151   1.252       .  A
C138        C324   1.459       .  S
O139        C149   1.270       .  A
O139       Al141   1.940       .  S
O140        C153   1.266       .  A
O140       Al150   1.934       .  S
Al141       O154   1.868       .  S
Al141       O151   1.857       .  S
Al141       O146   1.783       .  S
O142        C149   1.252       .  A
O142       Al150   1.844       .  S
O143        C152   1.252       .  A
O143       Al150   1.870       .  S
O144       Al150   1.964       .  S
O145        C152   1.278       .  A
O146       Al150   1.777       .  S
O147        C148   1.256       .  A
C148        C456   1.459       .  S
C149        C798   1.442       .  S
C152        C174   1.482       .  S
C153        O154   1.258       .  A
C153        C501   1.460       .  S
O155        C170   1.271       .  A
O155       Al163   1.969       .  S
C156        O166   1.273       .  A
C156        O157   1.263       .  A
C156        C288   1.505       .  S
O157      Al1567   1.922       .  S
O158        C160   1.273       .  A
O158      Al1567   1.959       .  S
Al159       O167   1.985       .  S
Al159       O169   1.844       .  S
Al159      O1565   1.922   1_455  S
Al159      O1566   1.959   1_455  S
Al159       O168   1.770       .  S
C160       O1581   1.253       .  A
C160        C258   1.459       .  S
O161        C171   1.270       .  A
O161       Al163   1.940       .  S
O162        C175   1.266       .  A
O162       Al172   1.934       .  S
Al163       O176   1.868       .  S
Al163       O173   1.857   1_455  S
Al163       O168   1.783       .  S
O164        C171   1.252   1_655  A
O164       Al172   1.844   1_655  S
O165        C174   1.252       .  A
O165       Al172   1.869       .  S
O166      Al1580   1.963       .  S
O167        C174   1.278       .  A
O168       Al172   1.777       .  S
O169        C170   1.256       .  A
C170        C478   1.459       .  S
C171       C2118   1.442   1_455  S
Al172      O1574   1.963   1_455  S
O173       C1568   1.253       .  A
C175        O176   1.259       .  A
C175        C413   1.459       .  S
O177        C192   1.271       .  A
O177       Al889   1.969   1_545  S
C178        O188   1.273       .  A
C178        O179   1.262       .  A
O179       Al885   1.922       .  S
O180        C182   1.273       .  A
O180       Al181   1.959       .  S
Al181       O191   1.844       .  S
Al181       O883   1.922   1_545  S
Al181       O893   1.985   1_545  S
Al181       O894   1.770   1_545  S
C182        O195   1.253   1_544  A
O183        C193   1.270   1_556  A
O183       Al185   1.940   1_556  S
O184        C197   1.266       .  A
O184       Al194   1.934       .  S
Al185       O198   1.868       .  S
Al185       O881   1.969       .  S
Al185       O899   1.857   1_554  S
Al185       O190   1.783       .  S
O186        C193   1.252       .  A
O186       Al194   1.844       .  S
O187        C196   1.252       .  A
O187       Al194   1.869       .  S
O188       Al194   1.963       .  S
O189        C196   1.278       .  A
O189       Al885   1.985       .  S
O190       Al194   1.777       .  S
O190       Al885   1.770       .  S
O191        C192   1.256       .  A
C192        C588   1.459       .  S
C193        C336   1.442   1_554  S
O195       Al889   1.857   1_556  S
C196        C218   1.482       .  S
C197        O198   1.258       .  A
C197        C545   1.459   1_554  S
O199        C214   1.271       .  A
O199       Al911   1.970   1_545  S
C200        O210   1.273       .  A
C200        O201   1.262       .  A
O201      Al2315   1.921       .  S
O202        C204   1.273       .  A
O202      Al1611   1.959       .  S
Al203       O213   1.844       .  S
Al203      O2313   1.921   1_445  S
Al203      O1610   1.959   1_455  S
Al203       O915   1.985   1_545  S
Al203       O916   1.770   1_545  S
C204       O1625   1.253   1_545  A
O205        C215   1.270       .  A
O205       Al207   1.940       .  S
O206        C219   1.266       .  A
O206       Al216   1.934       .  S
Al207       O220   1.868       .  S
Al207       O903   1.970       .  S
Al207       O921   1.857   1_455  S
Al207       O212   1.783       .  S
O208        C215   1.252   1_655  A
O208       Al216   1.844   1_655  S
O209        C218   1.252       .  A
O209       Al216   1.870       .  S
O210      Al1624   1.964       .  S
O211        C218   1.278       .  A
O211       Al907   1.985       .  S
O212       Al216   1.777       .  S
O212       Al907   1.770       .  S
O213        C214   1.256       .  A
C214        C610   1.459       .  S
C215       C1634   1.442   1_455  S
Al216      O1618   1.964   1_455  S
O217       C1612   1.253   1_565  A
O217       Al911   1.857   1_655  S
C219        O220   1.258       .  A
C219        C633   1.460       .  S
O221        C236   1.258       .  A
O221       Al229   1.868       .  S
C222        O232   1.262       .  A
C222        O223   1.273       .  A
C222        C618   1.505       .  S
O223      Al1633   1.963   1_455  S
O224        C226   1.252       .  A
O224       Al225   1.844       .  S
Al225       O233   1.870       .  S
Al225       O235   1.934       .  S
Al225      O1631   1.963       .  S
Al225       O234   1.777       .  S
C226        O239   1.270       .  A
C226       C1623   1.442       .  S
O227       C1645   1.253       .  A
O227       Al229   1.857       .  S
O228        C241   1.256       .  A
O228       Al238   1.844       .  S
Al229       O242   1.969       .  S
Al229       O239   1.940       .  S
Al229       O234   1.783       .  S
O230        C237   1.273       .  A
O230      Al1646   1.959   1_455  S
O231        C240   1.278       .  A
O231       Al238   1.985       .  S
O232      Al1646   1.922   1_455  S
O233        C240   1.252       .  A
O234       Al238   1.770       .  S
O235        C236   1.266       .  A
C237       O1635   1.253       .  A
C237        C615   1.459       .  S
Al238      O1638   1.959       .  S
Al238      O1640   1.922       .  S
C240        C262   1.482       .  S
C241        O242   1.271       .  A
O243        C258   1.259       .  A
O243       Al251   1.868       .  S
C244        O254   1.262       .  A
C244        O245   1.273       .  A
C244        C640   1.505       .  S
O245       Al247   1.963       .  S
O246        C248   1.252       .  A
O246       Al247   1.844       .  S
Al247       O255   1.870       .  S
Al247       O257   1.934       .  S
Al247       O256   1.777       .  S
C248        O261   1.270       .  A
C248        C303   1.442       .  S
O249        C259   1.253       .  A
O249       Al251   1.857       .  S
O250        C263   1.256       .  A
O250       Al260   1.844       .  S
Al251       O264   1.969       .  S
Al251       O261   1.940       .  S
Al251       O256   1.783       .  S
O252        C259   1.273       .  A
O252       Al260   1.959       .  S
O253        C262   1.278       .  A
O253       Al260   1.985       .  S
O254       Al260   1.922       .  S
O255        C262   1.252       .  A
O256       Al260   1.770       .  S
O257        C258   1.266       .  A
C259        C703   1.459       .  S
C263        O264   1.271       .  A
O265        C280   1.271       .  A
O265       Al977   1.969   1_545  S
C266        O276   1.273       .  A
C266        O267   1.262       .  A
O267       Al973   1.922       .  S
O268        C270   1.273       .  A
O268       Al269   1.959       .  S
Al269       O279   1.844       .  S
Al269       O971   1.922   1_545  S
Al269       O981   1.985   1_545  S
Al269       O982   1.770   1_545  S
C270        O283   1.253   1_545  A
O271        C281   1.270       .  A
O271       Al273   1.940       .  S
O272        C285   1.266       .  A
O272       Al282   1.934       .  S
Al273       O286   1.868       .  S
Al273       O969   1.969       .  S
Al273       O987   1.857       .  S
Al273       O278   1.783       .  S
O274        C281   1.252       .  A
O274       Al282   1.844       .  S
O275        C284   1.252       .  A
O275       Al282   1.869       .  S
O276       Al282   1.963       .  S
O277        C284   1.278       .  A
O277       Al973   1.985       .  S
O278       Al282   1.777       .  S
O278       Al973   1.770       .  S
O279        C280   1.256       .  A
C280        C676   1.459       .  S
C281        C314   1.442       .  S
O283       Al977   1.857       .  S
C284        C306   1.481       .  S
C285        O286   1.259       .  A
C285        C567   1.459       .  S
O287        C302   1.271       .  A
O287       Al999   1.970   1_545  S
C288        O298   1.273       .  A
C288        O289   1.262       .  A
O289       Al995   1.921       .  S
O290        C292   1.273       .  A
O290       Al291   1.959       .  S
Al291       O301   1.844       .  S
Al291       O993   1.921   1_545  S
Al291      O1003   1.984   1_545  S
Al291      O1004   1.770   1_545  S
C292        O305   1.253   1_545  A
O293        C303   1.270       .  A
O293       Al295   1.940       .  S
O294        C307   1.266       .  A
O294       Al304   1.935       .  S
Al295       O308   1.868       .  S
Al295       O991   1.970       .  S
Al295      O1009   1.857       .  S
Al295       O300   1.783       .  S
O296        C303   1.252       .  A
O296       Al304   1.844       .  S
O297        C306   1.252       .  A
O297       Al304   1.870       .  S
O298       Al304   1.964       .  S
O299        C306   1.278       .  A
O299       Al995   1.984       .  S
O300       Al304   1.777       .  S
O300       Al995   1.770       .  S
O301        C302   1.256       .  A
C302        C698   1.459       .  S
O305       Al999   1.857       .  S
C307        O308   1.259       .  A
C307        C655   1.460       .  S
O309        C324   1.259       .  A
O309       Al317   1.868       .  S
C310        O320   1.262       .  A
C310        O311   1.273       .  A
C310        C552   1.505       .  S
O311       Al313   1.963       .  S
O312        C314   1.252       .  A
O312       Al313   1.844       .  S
Al313       O321   1.870       .  S
Al313       O323   1.934       .  S
Al313       O322   1.777       .  S
C314        O327   1.270       .  A
O315        C325   1.253       .  A
O315       Al317   1.857       .  S
O316        C329   1.256       .  A
O316       Al326   1.844       .  S
Al317       O330   1.969       .  S
Al317       O327   1.940       .  S
Al317       O322   1.783       .  S
O318        C325   1.273       .  A
O318       Al326   1.960       .  S
O319        C328   1.278       .  A
O319       Al326   1.986       .  S
O320       Al326   1.922       .  S
O321        C328   1.252       .  A
O322       Al326   1.770       .  S
O323        C324   1.266       .  A
C325        C681   1.460       .  S
C328        C350   1.482       .  S
C329        O330   1.271       .  A
O331        C346   1.258       .  A
O331       Al339   1.868       .  S
C332        O342   1.262       .  A
C332        O333   1.273       .  A
C332        C530   1.505       .  S
O333       Al335   1.963       .  S
O334        C336   1.252       .  A
O334       Al335   1.844       .  S
Al335       O343   1.870       .  S
Al335       O345   1.934       .  S
Al335       O344   1.777       .  S
C336        O349   1.270   1_556  A
O337        C347   1.253   1_554  A
O337       Al339   1.857   1_554  S
O338        C351   1.256       .  A
O338       Al348   1.844       .  S
Al339       O352   1.969       .  S
Al339       O349   1.940   1_556  S
Al339       O344   1.783       .  S
O340        C347   1.273       .  A
O340       Al348   1.960       .  S
O341        C350   1.278       .  A
O341       Al348   1.985       .  S
O342       Al348   1.922       .  S
O343        C350   1.252       .  A
O344       Al348   1.770       .  S
O345        C346   1.266       .  A
C347        C593   1.460   1_556  S
C351        O352   1.271       .  A
O353        C368   1.271       .  A
O353       Al361   1.969       .  S
C354        O364   1.273       .  A
C354        O355   1.262       .  A
C354        C574   1.505       .  S
O355       Al357   1.922       .  S
O356        C358   1.273       .  A
O356       Al357   1.959       .  S
Al357       O365   1.985       .  S
Al357       O367   1.844       .  S
Al357       O366   1.770       .  S
C358        O371   1.253   1_554  A
C358        C544   1.459   1_554  S
O359        C369   1.270   1_556  A
O359       Al361   1.940   1_556  S
O360        C373   1.266       .  A
O360       Al370   1.934       .  S
Al361       O374   1.868       .  S
Al361       O371   1.857   1_554  S
Al361       O366   1.783       .  S
O362        C369   1.252       .  A
O362       Al370   1.844       .  S
O363        C372   1.252       .  A
O363       Al370   1.869       .  S
O364       Al370   1.963       .  S
O365        C372   1.278       .  A
O366       Al370   1.777       .  S
O367        C368   1.256       .  A
C369        C512   1.442   1_554  S
C372        C394   1.482       .  S
C373        O374   1.259       .  A
O375        C390   1.271       .  A
O375       Al383   1.970       .  S
C376        O386   1.273       .  A
C376        O377   1.262       .  A
C376        C596   1.505       .  S
O377       Al379   1.921       .  S
O378        C380   1.273       .  A
O378       Al379   1.959       .  S
Al379       O387   1.985       .  S
Al379       O389   1.844       .  S
Al379       O388   1.770       .  S
C380        O393   1.253       .  A
C380        C632   1.459       .  S
O381        C391   1.270       .  A
O381       Al383   1.940       .  S
O382        C395   1.266       .  A
O382       Al392   1.934       .  S
Al383       O396   1.868       .  S
Al383       O393   1.857       .  S
Al383       O388   1.783       .  S
O384        C391   1.252       .  A
O384       Al392   1.844       .  S
O385        C394   1.252       .  A
O385       Al392   1.870       .  S
O386       Al392   1.964       .  S
O387        C394   1.278       .  A
O388       Al392   1.777       .  S
O389        C390   1.256       .  A
C391        C424   1.442       .  S
C395        O396   1.259       .  A
O397        C412   1.258       .  A
O397       Al405   1.868       .  S
C398        O408   1.262       .  A
C398        O399   1.273       .  A
O399       Al401   1.963       .  S
O400        C402   1.252       .  A
O400       Al401   1.844       .  S
Al401       O409   1.870       .  S
Al401       O411   1.934       .  S
Al401       O410   1.777       .  S
C402        O415   1.270       .  A
C402        C479   1.442       .  S
O403       C1117   1.253   1_545  A
O403       Al405   1.857       .  S
O404        C417   1.256       .  A
O404      Al1118   1.844       .  S
Al405       O415   1.940       .  S
Al405      O1122   1.969   1_545  S
Al405       O410   1.783       .  S
O406        C413   1.273       .  A
O406      Al1118   1.959       .  S
O407        C416   1.278       .  A
O407       Al414   1.985   1_545  S
O408       Al414   1.922   1_545  S
O409        C416   1.252       .  A
O410       Al414   1.770   1_545  S
O411        C412   1.266       .  A
C412        C688   1.459       .  S
C413       O1107   1.253       .  A
Al414      O1108   1.844       .  S
Al414      O1110   1.959       .  S
C416        C438   1.482       .  S
C417        O418   1.271       .  A
C417        C659   1.459       .  S
O418      Al1109   1.969       .  S
O419        C434   1.258       .  A
O419       Al427   1.868       .  S
C420        O430   1.262       .  A
C420        O421   1.273       .  A
O421       Al423   1.963       .  S
O422        C424   1.252       .  A
O422       Al423   1.844       .  S
Al423       O431   1.870       .  S
Al423       O433   1.934       .  S
Al423       O432   1.777       .  S
C424        O437   1.270       .  A
O425       C1139   1.253   1_545  A
O425       Al427   1.857       .  S
O426        C439   1.256       .  A
O426      Al1140   1.844       .  S
Al427       O437   1.940       .  S
Al427      O1144   1.969   1_545  S
Al427       O432   1.783       .  S
O428        C435   1.273       .  A
O428      Al1140   1.959       .  S
O429        C438   1.278       .  A
O429       Al436   1.985   1_545  S
O430       Al436   1.922   1_545  S
O431        C438   1.252       .  A
O432       Al436   1.770   1_545  S
O433        C434   1.266       .  A
C434        C600   1.459       .  S
C435       O1129   1.253       .  A
Al436      O1130   1.844       .  S
Al436      O1132   1.959       .  S
C439        O440   1.271       .  A
C439        C637   1.459       .  S
O440      Al1131   1.969       .  S
O441        C456   1.271       .  A
O441       Al449   1.969       .  S
C442        O452   1.273       .  A
C442        O443   1.262       .  A
C442        C662   1.505       .  S
O443      Al1853   1.922       .  S
O444        C446   1.273       .  A
O444      Al1853   1.959       .  S
Al445       O453   1.985       .  S
Al445       O455   1.844       .  S
Al445      O1851   1.922   1_455  S
Al445      O1852   1.959   1_455  S
Al445       O454   1.770       .  S
C446       O1867   1.253       .  A
C446        C566   1.459       .  S
O447        C457   1.270       .  A
O447       Al449   1.940       .  S
O448        C461   1.266       .  A
O448       Al458   1.934       .  S
Al449       O462   1.868       .  S
Al449       O459   1.857   1_455  S
Al449       O454   1.783       .  S
O450        C457   1.252   1_655  A
O450       Al458   1.844   1_655  S
O451        C460   1.252       .  A
O451       Al458   1.869       .  S
O452      Al1866   1.963       .  S
O453        C460   1.278       .  A
O454       Al458   1.777       .  S
O455        C456   1.256       .  A
C457       C1898   1.442   1_455  S
Al458      O1860   1.963   1_455  S
O459       C1854   1.253       .  A
C460        C482   1.481       .  S
C461        O462   1.258       .  A
O463        C478   1.271       .  A
O463       Al471   1.970       .  S
C464        O474   1.273       .  A
C464        O465   1.262       .  A
C464        C684   1.505       .  S
O465       Al467   1.921       .  S
O466        C468   1.273       .  A
O466       Al467   1.959       .  S
Al467       O475   1.984       .  S
Al467       O477   1.844       .  S
Al467       O476   1.770       .  S
C468        O481   1.253       .  A
C468        C654   1.459       .  S
O469        C479   1.270       .  A
O469       Al471   1.940       .  S
O470        C483   1.266       .  A
O470       Al480   1.934       .  S
Al471       O484   1.868       .  S
Al471       O481   1.857       .  S
Al471       O476   1.783       .  S
O472        C479   1.252       .  A
O472       Al480   1.844       .  S
O473        C482   1.252       .  A
O473       Al480   1.870       .  S
O474       Al480   1.964       .  S
O475        C482   1.278       .  A
O476       Al480   1.777       .  S
O477        C478   1.256       .  A
C483        O484   1.258       .  A
O485        C500   1.258       .  A
O485       Al493   1.868       .  S
C486        O496   1.262       .  A
C486        O487   1.273       .  A
O487      Al1897   1.963   1_455  S
O488        C490   1.252       .  A
O488       Al489   1.844       .  S
Al489       O497   1.870       .  S
Al489       O499   1.934       .  S
Al489      O1895   1.963       .  S
Al489       O498   1.777       .  S
C490        O503   1.270       .  A
C490       C1865   1.442       .  S
O491       C2613   1.253   1_545  A
O491       Al493   1.857       .  S
O492        C505   1.256       .  A
O492      Al1206   1.844       .  S
Al493       O503   1.940       .  S
Al493      O1210   1.969   1_545  S
Al493       O498   1.783       .  S
O494        C501   1.273       .  A
O494      Al2614   1.960   1_455  S
O495        C504   1.278       .  A
O495       Al502   1.986   1_545  S
O496      Al1910   1.922   1_445  S
O497        C504   1.252       .  A
O498       Al502   1.770   1_545  S
O499        C500   1.266       .  A
C500        C666   1.459       .  S
C501       O2603   1.253       .  A
Al502      O1196   1.844       .  S
Al502      O2606   1.960       .  S
Al502      O1904   1.922   1_565  S
C504        C526   1.482       .  S
C505        O506   1.271       .  A
C505        C571   1.459       .  S
O506      Al1197   1.969       .  S
O507        C522   1.259       .  A
O507       Al515   1.868       .  S
C508        O518   1.262       .  A
C508        O509   1.273       .  A
O509       Al511   1.963       .  S
O510        C512   1.252       .  A
O510       Al511   1.844       .  S
Al511       O519   1.870       .  S
Al511       O521   1.934       .  S
Al511       O520   1.777       .  S
C512        O525   1.270   1_556  A
O513       C1227   1.253   1_544  A
O513       Al515   1.857   1_554  S
O514        C527   1.256       .  A
O514      Al1228   1.844       .  S
Al515       O525   1.940   1_556  S
Al515      O1232   1.969   1_545  S
Al515       O520   1.783       .  S
O516        C523   1.273       .  A
O516      Al1228   1.960       .  S
O517        C526   1.278       .  A
O517       Al524   1.985   1_545  S
O518       Al524   1.922   1_545  S
O519        C526   1.252       .  A
O520       Al524   1.770   1_545  S
O521        C522   1.266       .  A
C522        C578   1.459   1_556  S
C523       O1217   1.253   1_556  A
Al524      O1218   1.844       .  S
Al524      O1220   1.960       .  S
C527        O528   1.271       .  A
C527        C549   1.459       .  S
O528      Al1219   1.969       .  S
O529        C544   1.258       .  A
O529       Al537   1.868       .  S
C530        O540   1.262       .  A
C530        O531   1.273       .  A
O531      Al1941   1.963   1_455  S
O532        C534   1.252       .  A
O532       Al533   1.844       .  S
Al533       O541   1.870       .  S
Al533       O543   1.934       .  S
Al533      O1939   1.963       .  S
Al533       O542   1.777       .  S
C534        O547   1.270   1_556  A
C534       C1997   1.442   1_556  S
O535       C1953   1.253   1_554  A
O535       Al537   1.857   1_554  S
O536        C549   1.256       .  A
O536       Al546   1.844       .  S
Al537       O550   1.969       .  S
Al537       O547   1.940   1_556  S
Al537       O542   1.783       .  S
O538        C545   1.273       .  A
O538      Al1954   1.959   1_455  S
O539        C548   1.278       .  A
O539       Al546   1.985       .  S
O540      Al1954   1.922   1_455  S
O541        C548   1.252       .  A
O542       Al546   1.770       .  S
O543        C544   1.266       .  A
C545       O1943   1.253   1_556  A
Al546      O1946   1.959       .  S
Al546      O1948   1.922       .  S
C548        C570   1.482       .  S
C549        O550   1.271       .  A
O551        C566   1.258       .  A
O551       Al559   1.868       .  S
C552        O562   1.262       .  A
C552        O553   1.273       .  A
O553       Al555   1.963       .  S
O554        C556   1.252       .  A
O554       Al555   1.844       .  S
Al555       O563   1.870       .  S
Al555       O565   1.934       .  S
Al555       O564   1.777       .  S
C556        O569   1.270       .  A
C556        C677   1.442       .  S
O557        C567   1.253       .  A
O557       Al559   1.857       .  S
O558        C571   1.256       .  A
O558       Al568   1.844       .  S
Al559       O572   1.969       .  S
Al559       O569   1.940       .  S
Al559       O564   1.783       .  S
O560        C567   1.273       .  A
O560       Al568   1.959       .  S
O561        C570   1.278       .  A
O561       Al568   1.985       .  S
O562       Al568   1.922       .  S
O563        C570   1.252       .  A
O564       Al568   1.770       .  S
O565        C566   1.266       .  A
C571        O572   1.271       .  A
O573        C588   1.271       .  A
O573       Al581   1.970       .  S
C574        O584   1.273       .  A
C574        O575   1.262       .  A
O575      Al1985   1.921       .  S
O576        C578   1.273       .  A
O576      Al1985   1.959       .  S
Al577       O585   1.984       .  S
Al577       O587   1.844       .  S
Al577      O1983   1.921   1_455  S
Al577      O1984   1.959   1_455  S
Al577       O586   1.770       .  S
C578       O1999   1.253   1_554  A
O579        C589   1.270   1_556  A
O579       Al581   1.940   1_556  S
O580        C593   1.266       .  A
O580       Al590   1.934       .  S
Al581       O594   1.868       .  S
Al581       O591   1.857   1_454  S
Al581       O586   1.783       .  S
O582        C589   1.252   1_655  A
O582       Al590   1.844   1_655  S
O583        C592   1.252       .  A
O583       Al590   1.870       .  S
O584      Al1998   1.964       .  S
O585        C592   1.278       .  A
O586       Al590   1.777       .  S
O587        C588   1.256       .  A
C589       C1942   1.442   1_454  S
Al590      O1992   1.964   1_455  S
O591       C1986   1.253   1_556  A
C592        C614   1.482       .  S
C593        O594   1.258       .  A
O595        C610   1.271       .  A
O595       Al603   1.969       .  S
C596        O606   1.273       .  A
C596        O597   1.262       .  A
O597       Al599   1.922       .  S
O598        C600   1.273       .  A
O598       Al599   1.959       .  S
Al599       O607   1.985       .  S
Al599       O609   1.844       .  S
Al599       O608   1.770       .  S
C600        O613   1.253       .  A
O601        C611   1.270       .  A
O601       Al603   1.940       .  S
O602        C615   1.266       .  A
O602       Al612   1.934       .  S
Al603       O616   1.868       .  S
Al603       O613   1.857       .  S
Al603       O608   1.783       .  S
O604        C611   1.252       .  A
O604       Al612   1.844       .  S
O605        C614   1.252       .  A
O605       Al612   1.869       .  S
O606       Al612   1.963       .  S
O607        C614   1.278       .  A
O608       Al612   1.777       .  S
O609        C610   1.256       .  A
C611        C622   1.442       .  S
C615        O616   1.258       .  A
O617        C632   1.258       .  A
O617       Al625   1.868       .  S
C618        O628   1.262       .  A
C618        O619   1.273       .  A
O619       Al621   1.963       .  S
O620        C622   1.252       .  A
O620       Al621   1.844       .  S
Al621       O629   1.870       .  S
Al621       O631   1.934       .  S
Al621       O630   1.777       .  S
C622        O635   1.270       .  A
O623        C633   1.253       .  A
O623       Al625   1.857       .  S
O624        C637   1.256       .  A
O624       Al634   1.844       .  S
Al625       O638   1.969       .  S
Al625       O635   1.940       .  S
Al625       O630   1.783       .  S
O626        C633   1.273       .  A
O626       Al634   1.960       .  S
O627        C636   1.278       .  A
O627       Al634   1.985       .  S
O628       Al634   1.922       .  S
O629        C636   1.252       .  A
O630       Al634   1.770       .  S
O631        C632   1.266       .  A
C636        C658   1.482       .  S
C637        O638   1.271       .  A
O639        C654   1.258       .  A
O639       Al647   1.868       .  S
C640        O650   1.262       .  A
C640        O641   1.273       .  A
O641       Al643   1.963       .  S
O642        C644   1.252       .  A
O642       Al643   1.844       .  S
Al643       O651   1.870       .  S
Al643       O653   1.934       .  S
Al643       O652   1.777       .  S
C644        O657   1.270       .  A
C644        C699   1.442       .  S
O645        C655   1.253       .  A
O645       Al647   1.857       .  S
O646        C659   1.256       .  A
O646       Al656   1.844       .  S
Al647       O660   1.969       .  S
Al647       O657   1.940       .  S
Al647       O652   1.783       .  S
O648        C655   1.273       .  A
O648       Al656   1.960       .  S
O649        C658   1.278       .  A
O649       Al656   1.985       .  S
O650       Al656   1.922       .  S
O651        C658   1.252       .  A
O652       Al656   1.770       .  S
O653        C654   1.266       .  A
C659        O660   1.271       .  A
O661        C676   1.271       .  A
O661       Al669   1.970       .  S
C662        O672   1.273       .  A
C662        O663   1.262       .  A
O663       Al665   1.921       .  S
O664        C666   1.273       .  A
O664       Al665   1.959       .  S
Al665       O673   1.984       .  S
Al665       O675   1.844       .  S
Al665       O674   1.770       .  S
C666        O679   1.253       .  A
O667        C677   1.270       .  A
O667       Al669   1.940       .  S
O668        C681   1.266       .  A
O668       Al678   1.934       .  S
Al669       O682   1.868       .  S
Al669       O679   1.857       .  S
Al669       O674   1.783       .  S
O670        C677   1.252       .  A
O670       Al678   1.844       .  S
O671        C680   1.252       .  A
O671       Al678   1.870       .  S
O672       Al678   1.964       .  S
O673        C680   1.278       .  A
O674       Al678   1.777       .  S
O675        C676   1.256       .  A
C680        C702   1.482       .  S
C681        O682   1.258       .  A
O683        C698   1.271       .  A
O683       Al691   1.969       .  S
C684        O694   1.273       .  A
C684        O685   1.263       .  A
O685       Al687   1.922       .  S
O686        C688   1.273       .  A
O686       Al687   1.959       .  S
Al687       O695   1.985       .  S
Al687       O697   1.844       .  S
Al687       O696   1.770       .  S
C688        O701   1.253       .  A
O689        C699   1.270       .  A
O689       Al691   1.940       .  S
O690        C703   1.266       .  A
O690       Al700   1.934       .  S
Al691       O704   1.868       .  S
Al691       O701   1.857       .  S
Al691       O696   1.783       .  S
O692        C699   1.252       .  A
O692       Al700   1.844       .  S
O693        C702   1.252       .  A
O693       Al700   1.869       .  S
O694       Al700   1.963       .  S
O695        C702   1.278       .  A
O696       Al700   1.777       .  S
O697        C698   1.256       .  A
C703        O704   1.259       .  A
O705        C720   1.259       .  A
O705       Al713   1.868       .  S
C706        O716   1.262       .  A
C706        O707   1.273       .  A
C706       C1102   1.505       .  S
O707      Al2117   1.963   1_455  S
O708        C710   1.252       .  A
O708       Al709   1.844       .  S
Al709      O2115   1.963       .  S
Al709       O717   1.870       .  S
Al709       O719   1.934       .  S
Al709       O718   1.777       .  S
C710        O723   1.270       .  A
C710       C1579   1.442       .  S
O711       C2129   1.253       .  A
O711       Al713   1.857       .  S
O712        C725   1.256       .  A
O712       Al722   1.844       .  S
Al713       O726   1.969       .  S
Al713       O723   1.940       .  S
Al713       O718   1.783       .  S
O714        C721   1.273       .  A
O714      Al2130   1.960   1_455  S
O715        C724   1.278       .  A
O715       Al722   1.985       .  S
O716      Al2130   1.922   1_455  S
O717        C724   1.252       .  A
O718       Al722   1.770       .  S
O719        C720   1.266       .  A
C720        C996   1.459       .  S
C721       O2119   1.253       .  A
C721       C1187   1.460       .  S
Al722      O2122   1.960       .  S
Al722      O2124   1.922       .  S
C724        C746   1.482       .  S
C725        O726   1.271       .  A
C725        C967   1.459       .  S
O727        C742   1.258       .  A
O727       Al735   1.868       .  S
C728        O738   1.262       .  A
C728        O729   1.273       .  A
C728       C1124   1.505       .  S
O729       Al731   1.963       .  S
O730        C732   1.252       .  A
O730       Al731   1.844       .  S
Al731       O739   1.870       .  S
Al731       O741   1.934       .  S
Al731       O740   1.777       .  S
C732        O745   1.270       .  A
O733        C743   1.253       .  A
O733       Al735   1.857       .  S
O734        C747   1.256       .  A
O734       Al744   1.844       .  S
Al735       O748   1.969       .  S
Al735       O745   1.940       .  S
Al735       O740   1.783       .  S
O736        C743   1.273       .  A
O736       Al744   1.960       .  S
O737        C746   1.278       .  A
O737       Al744   1.986       .  S
O738       Al744   1.922       .  S
O739        C746   1.252       .  A
O740       Al744   1.770       .  S
O741        C742   1.266       .  A
C742        C908   1.459       .  S
C743       C1099   1.460       .  S
C747        O748   1.271       .  A
C747        C945   1.459       .  S
O749        C764   1.271       .  A
O749       Al757   1.970       .  S
C750        O760   1.273       .  A
C750        O751   1.262       .  A
C750        C882   1.505       .  S
O751       Al753   1.921       .  S
O752        C754   1.273       .  A
O752       Al753   1.959       .  S
Al753       O761   1.984       .  S
Al753       O763   1.844       .  S
Al753       O762   1.770       .  S
C754        O767   1.253   1_554  A
C754       C1050   1.459   1_554  S
O755        C765   1.270   1_556  A
O755       Al757   1.940   1_556  S
O756        C769   1.266       .  A
O756       Al766   1.934       .  S
Al757       O770   1.868       .  S
Al757       O767   1.857   1_554  S
Al757       O762   1.783       .  S
O758        C765   1.252       .  A
O758       Al766   1.844       .  S
O759        C768   1.252       .  A
O759       Al766   1.870       .  S
O760       Al766   1.964       .  S
O761        C768   1.278       .  A
O762       Al766   1.777       .  S
O763        C764   1.256       .  A
C764       C1072   1.459       .  S
C768        C790   1.482       .  S
C769        O770   1.258       .  A
C769       C1227   1.460   1_554  S
O771        C786   1.271       .  A
O771       Al779   1.969       .  S
C772        O782   1.273       .  A
C772        O773   1.262       .  A
C772        C904   1.505       .  S
O773       Al775   1.922       .  S
O774        C776   1.273       .  A
O774       Al775   1.959       .  S
Al775       O783   1.985       .  S
Al775       O785   1.844       .  S
Al775       O784   1.770       .  S
C776        O789   1.253       .  A
C776        C940   1.460       .  S
O777        C787   1.270       .  A
O777       Al779   1.940       .  S
O778        C791   1.266       .  A
O778       Al788   1.934       .  S
Al779       O792   1.868       .  S
Al779       O789   1.857       .  S
Al779       O784   1.783       .  S
O780        C787   1.252       .  A
O780       Al788   1.844       .  S
O781        C790   1.252       .  A
O781       Al788   1.869       .  S
O782       Al788   1.963       .  S
O783        C790   1.278       .  A
O784       Al788   1.777       .  S
O785        C786   1.256       .  A
C786       C1094   1.459       .  S
C791        O792   1.258       .  A
C791       C1139   1.459       .  S
O793        C808   1.258       .  A
O793       Al801   1.868       .  S
C794        O804   1.262       .  A
C794        O795   1.273       .  A
C794       C1190   1.505       .  S
O795       Al797   1.963       .  S
O796        C798   1.252       .  A
O796       Al797   1.844       .  S
Al797       O805   1.870       .  S
Al797       O807   1.934       .  S
Al797       O806   1.777       .  S
C798        O811   1.270       .  A
O799        C809   1.253       .  A
O799       Al801   1.857       .  S
O800        C813   1.256       .  A
O800       Al810   1.844       .  S
Al801       O814   1.969       .  S
Al801       O811   1.940       .  S
Al801       O806   1.783       .  S
O802        C809   1.273       .  A
O802       Al810   1.959       .  S
O803        C812   1.278       .  A
O803       Al810   1.985       .  S
O804       Al810   1.922       .  S
O805        C812   1.252       .  A
O806       Al810   1.770       .  S
O807        C808   1.266       .  A
C808        C974   1.459       .  S
C809       C1165   1.459       .  S
C812        C834   1.482       .  S
C813        O814   1.271       .  A
C813       C1033   1.459       .  S
O815        C830   1.258       .  A
O815       Al823   1.868       .  S
C816        O826   1.262       .  A
C816        O817   1.273       .  A
C816       C1212   1.505       .  S
O817       Al819   1.963       .  S
O818        C820   1.252       .  A
O818       Al819   1.844       .  S
Al819       O827   1.870       .  S
Al819       O829   1.934       .  S
Al819       O828   1.777       .  S
C820        O833   1.270   1_556  A
O821        C831   1.253   1_554  A
O821       Al823   1.857   1_554  S
O822        C835   1.256       .  A
O822       Al832   1.844       .  S
Al823       O836   1.969       .  S
Al823       O833   1.940   1_556  S
Al823       O828   1.783       .  S
O824        C831   1.273       .  A
O824       Al832   1.959       .  S
O825        C834   1.278       .  A
O825       Al832   1.985       .  S
O826       Al832   1.922       .  S
O827        C834   1.252       .  A
O828       Al832   1.770       .  S
O829        C830   1.266       .  A
C830        C886   1.459   1_556  S
C831       C1077   1.459   1_556  S
C835        O836   1.271       .  A
C835       C1055   1.459       .  S
O837        C852   1.271       .  A
O837       Al845   1.970       .  S
C838        O848   1.273       .  A
C838        O839   1.262       .  A
C838        C970   1.505       .  S
O839       Al841   1.921       .  S
O840        C842   1.273       .  A
O840       Al841   1.959       .  S
Al841       O849   1.985       .  S
Al841       O851   1.844       .  S
Al841       O850   1.770       .  S
C842        O855   1.252       .  A
C842       C1028   1.459       .  S
O843        C853   1.270       .  A
O843       Al845   1.940       .  S
O844        C857   1.266       .  A
O844       Al854   1.934       .  S
Al845       O858   1.868       .  S
Al845       O855   1.857       .  S
Al845       O850   1.783       .  S
O846        C853   1.252       .  A
O846       Al854   1.844       .  S
O847        C856   1.252       .  A
O847       Al854   1.870       .  S
O848       Al854   1.964       .  S
O849        C856   1.278       .  A
O850       Al854   1.777       .  S
O851        C852   1.256       .  A
C852       C1160   1.459       .  S
C856        C878   1.482       .  S
C857        O858   1.258       .  A
C857       C1205   1.460       .  S
O859        C874   1.271       .  A
O859       Al867   1.969       .  S
C860        O870   1.273       .  A
C860        O861   1.263       .  A
C860        C992   1.505       .  S
O861      Al2271   1.922       .  S
O862        C864   1.273       .  A
O862      Al2271   1.959       .  S
Al863      O2269   1.922   1_455  S
Al863      O2270   1.959   1_455  S
Al863       O871   1.985       .  S
Al863       O873   1.844       .  S
Al863       O872   1.770       .  S
C864       O2285   1.253       .  A
C864        C962   1.459       .  S
O865        C875   1.270       .  A
O865       Al867   1.940       .  S
O866        C879   1.266       .  A
O866       Al876   1.934       .  S
Al867       O880   1.868       .  S
Al867       O877   1.857   1_455  S
Al867       O872   1.783       .  S
O868        C875   1.252   1_655  A
O868       Al876   1.844   1_655  S
O869        C878   1.252       .  A
O869       Al876   1.869       .  S
O870      Al2284   1.963       .  S
O871        C878   1.278       .  A
O872       Al876   1.777       .  S
O873        C874   1.256       .  A
C874       C1182   1.459       .  S
C875       C1414   1.442   1_465  S
Al876      O2278   1.963   1_455  S
O877       C2272   1.253       .  A
C879        O880   1.259       .  A
C879       C1117   1.459       .  S
O881        C896   1.271       .  A
C882        O892   1.273       .  A
C882        O883   1.263       .  A
O884        C886   1.273       .  A
O884       Al885   1.959       .  S
Al885       O895   1.844       .  S
C886        O899   1.253   1_554  A
O887        C897   1.270   1_556  A
O887       Al889   1.940   1_556  S
O888        C901   1.266       .  A
O888       Al898   1.934       .  S
Al889       O902   1.868       .  S
Al889       O894   1.783       .  S
O890        C897   1.252       .  A
O890       Al898   1.844       .  S
O891        C900   1.252       .  A
O891       Al898   1.869       .  S
O892       Al898   1.963       .  S
O893        C900   1.278       .  A
O894       Al898   1.777       .  S
O895        C896   1.256       .  A
C896       C1292   1.459       .  S
C897       C1040   1.442   1_554  S
C900        C922   1.482       .  S
C901        O902   1.259       .  A
C901       C1249   1.459   1_554  S
O903        C918   1.271       .  A
C904        O914   1.273       .  A
C904        O905   1.262       .  A
O905      Al1611   1.921   1_565  S
O906        C908   1.273       .  A
O906      Al2315   1.959       .  S
Al907      O1609   1.921   1_455  S
Al907      O2314   1.959   1_455  S
Al907       O917   1.844       .  S
C908       O2329   1.253       .  A
O909        C919   1.270       .  A
O909       Al911   1.940       .  S
O910        C923   1.266       .  A
O910       Al920   1.934       .  S
Al911       O924   1.868       .  S
Al911       O916   1.783       .  S
O912        C919   1.252   1_655  A
O912       Al920   1.844   1_655  S
O913        C922   1.252       .  A
O913       Al920   1.870       .  S
O914      Al2328   1.964       .  S
O915        C922   1.278       .  A
O916       Al920   1.777       .  S
O917        C918   1.256       .  A
C918       C1314   1.459       .  S
C919       C2338   1.442   1_455  S
Al920      O2322   1.964   1_455  S
O921       C2316   1.253       .  A
C923        O924   1.258       .  A
C923       C1337   1.460       .  S
O925        C940   1.258       .  A
O925       Al933   1.868       .  S
C926        O936   1.262       .  A
C926        O927   1.273       .  A
C926       C1322   1.505       .  S
O927      Al2337   1.963   1_455  S
O928        C930   1.252       .  A
O928       Al929   1.844       .  S
Al929      O2335   1.963       .  S
Al929       O937   1.870       .  S
Al929       O939   1.934       .  S
Al929       O938   1.777       .  S
C930        O943   1.270       .  A
C930       C2327   1.442       .  S
O931       C2349   1.253       .  A
O931       Al933   1.857       .  S
O932        C945   1.256       .  A
O932       Al942   1.844       .  S
Al933       O946   1.969       .  S
Al933       O943   1.940       .  S
Al933       O938   1.783       .  S
O934        C941   1.273       .  A
O934      Al2350   1.959   1_455  S
O935        C944   1.278       .  A
O935       Al942   1.985       .  S
O936      Al2350   1.922   1_455  S
O937        C944   1.252       .  A
O938       Al942   1.770       .  S
O939        C940   1.266       .  A
C941       O2339   1.253       .  A
C941       C1319   1.459       .  S
Al942      O2342   1.959       .  S
Al942      O2344   1.922       .  S
C944        C966   1.482       .  S
C945        O946   1.271       .  A
O947        C962   1.259       .  A
O947       Al955   1.868       .  S
C948        O958   1.262       .  A
C948        O949   1.273       .  A
C948       C1344   1.505       .  S
O949       Al951   1.963       .  S
O950        C952   1.252       .  A
O950       Al951   1.844       .  S
Al951       O959   1.870       .  S
Al951       O961   1.934       .  S
Al951       O960   1.777       .  S
C952        O965   1.270       .  A
C952       C1007   1.442       .  S
O953        C963   1.253       .  A
O953       Al955   1.857       .  S
O954        C967   1.256       .  A
O954       Al964   1.844       .  S
Al955       O968   1.969       .  S
Al955       O965   1.940       .  S
Al955       O960   1.783       .  S
O956        C963   1.273       .  A
O956       Al964   1.959       .  S
O957        C966   1.278       .  A
O957       Al964   1.985       .  S
O958       Al964   1.922       .  S
O959        C966   1.252       .  A
O960       Al964   1.770       .  S
O961        C962   1.266       .  A
C963       C1407   1.459       .  S
C967        O968   1.271       .  A
O969        C984   1.271       .  A
C970        O980   1.273       .  A
C970        O971   1.262       .  A
O972        C974   1.273       .  A
O972       Al973   1.959       .  S
Al973       O983   1.844       .  S
C974        O987   1.253       .  A
O975        C985   1.270       .  A
O975       Al977   1.940       .  S
O976        C989   1.266       .  A
O976       Al986   1.934       .  S
Al977       O990   1.868       .  S
Al977       O982   1.783       .  S
O978        C985   1.252       .  A
O978       Al986   1.844       .  S
O979        C988   1.252       .  A
O979       Al986   1.869       .  S
O980       Al986   1.963       .  S
O981        C988   1.278       .  A
O982       Al986   1.777       .  S
O983        C984   1.256       .  A
C984       C1380   1.459       .  S
C985       C1018   1.442       .  S
C988       C1010   1.481       .  S
C989        O990   1.259       .  A
C989       C1271   1.459       .  S
O991       C1006   1.271       .  A
C992       O1002   1.273       .  A
C992        O993   1.262       .  A
O994        C996   1.273       .  A
O994       Al995   1.959       .  S
Al995      O1005   1.844       .  S
C996       O1009   1.253       .  A
O997       C1007   1.270       .  A
O997       Al999   1.940       .  S
O998       C1011   1.266       .  A
O998      Al1008   1.935       .  S
Al999      O1012   1.868       .  S
Al999      O1004   1.783       .  S
O1000      C1007   1.252       .  A
O1000     Al1008   1.844       .  S
O1001      C1010   1.252       .  A
O1001     Al1008   1.870       .  S
O1002     Al1008   1.964       .  S
O1003      C1010   1.278       .  A
O1004     Al1008   1.777       .  S
O1005      C1006   1.256       .  A
C1006      C1402   1.459       .  S
C1011      O1012   1.259       .  A
C1011      C1359   1.460       .  S
O1013      C1028   1.259       .  A
O1013     Al1021   1.868       .  S
C1014      O1024   1.262       .  A
C1014      O1015   1.273       .  A
C1014      C1256   1.505       .  S
O1015     Al1017   1.963       .  S
O1016      C1018   1.252       .  A
O1016     Al1017   1.844       .  S
Al1017     O1025   1.870       .  S
Al1017     O1027   1.934       .  S
Al1017     O1026   1.777       .  S
C1018      O1031   1.270       .  A
O1019      C1029   1.253       .  A
O1019     Al1021   1.857       .  S
O1020      C1033   1.256       .  A
O1020     Al1030   1.844       .  S
Al1021     O1034   1.969       .  S
Al1021     O1031   1.940       .  S
Al1021     O1026   1.783       .  S
O1022      C1029   1.273       .  A
O1022     Al1030   1.960       .  S
O1023      C1032   1.278       .  A
O1023     Al1030   1.986       .  S
O1024     Al1030   1.922       .  S
O1025      C1032   1.252       .  A
O1026     Al1030   1.770       .  S
O1027      C1028   1.266       .  A
C1029      C1385   1.460       .  S
C1032      C1054   1.482       .  S
C1033      O1034   1.271       .  A
O1035      C1050   1.259       .  A
O1035     Al1043   1.868       .  S
C1036      O1046   1.262       .  A
C1036      O1037   1.273       .  A
C1036      C1234   1.505       .  S
O1037     Al1039   1.963       .  S
O1038      C1040   1.252       .  A
O1038     Al1039   1.844       .  S
Al1039     O1047   1.870       .  S
Al1039     O1049   1.934       .  S
Al1039     O1048   1.777       .  S
C1040      O1053   1.270   1_556  A
O1041      C1051   1.253   1_554  A
O1041     Al1043   1.857   1_554  S
O1042      C1055   1.256       .  A
O1042     Al1052   1.844       .  S
Al1043     O1056   1.969       .  S
Al1043     O1053   1.940   1_556  S
Al1043     O1048   1.783       .  S
O1044      C1051   1.273       .  A
O1044     Al1052   1.960       .  S
O1045      C1054   1.278       .  A
O1045     Al1052   1.985       .  S
O1046     Al1052   1.922       .  S
O1047      C1054   1.252       .  A
O1048     Al1052   1.770       .  S
O1049      C1050   1.266       .  A
C1051      C1297   1.460   1_556  S
C1055      O1056   1.271       .  A
O1057      C1072   1.271       .  A
O1057     Al1065   1.969       .  S
C1058      O1068   1.273       .  A
C1058      O1059   1.262       .  A
C1058      C1278   1.505       .  S
O1059     Al1061   1.922       .  S
O1060      C1062   1.273       .  A
O1060     Al1061   1.959       .  S
Al1061     O1069   1.985       .  S
Al1061     O1071   1.844       .  S
Al1061     O1070   1.770       .  S
C1062      O1075   1.253   1_554  A
C1062      C1248   1.459   1_554  S
O1063      C1073   1.270   1_556  A
O1063     Al1065   1.940   1_556  S
O1064      C1077   1.266       .  A
O1064     Al1074   1.934       .  S
Al1065     O1078   1.868       .  S
Al1065     O1075   1.857   1_554  S
Al1065     O1070   1.783       .  S
O1066      C1073   1.252       .  A
O1066     Al1074   1.844       .  S
O1067      C1076   1.252       .  A
O1067     Al1074   1.869       .  S
O1068     Al1074   1.963       .  S
O1069      C1076   1.278       .  A
O1070     Al1074   1.777       .  S
O1071      C1072   1.256       .  A
C1073      C1216   1.442   1_554  S
C1076      C1098   1.482       .  S
C1077      O1078   1.259       .  A
O1079      C1094   1.271       .  A
O1079     Al1087   1.970       .  S
C1080      O1090   1.273       .  A
C1080      O1081   1.263       .  A
C1080      C1300   1.505       .  S
O1081     Al1083   1.921       .  S
O1082      C1084   1.273       .  A
O1082     Al1083   1.959       .  S
Al1083     O1091   1.985       .  S
Al1083     O1093   1.844       .  S
Al1083     O1092   1.770       .  S
C1084      O1097   1.253       .  A
C1084      C1336   1.459       .  S
O1085      C1095   1.270       .  A
O1085     Al1087   1.940       .  S
O1086      C1099   1.266       .  A
O1086     Al1096   1.934       .  S
Al1087     O1100   1.868       .  S
Al1087     O1097   1.857       .  S
Al1087     O1092   1.783       .  S
O1088      C1095   1.252       .  A
O1088     Al1096   1.844       .  S
O1089      C1098   1.252       .  A
O1089     Al1096   1.870       .  S
O1090     Al1096   1.964       .  S
O1091      C1098   1.278       .  A
O1092     Al1096   1.777       .  S
O1093      C1094   1.256       .  A
C1095      C1128   1.442       .  S
C1099      O1100   1.259       .  A
O1101      C1116   1.259       .  A
O1101     Al1109   1.868       .  S
C1102      O1112   1.262       .  A
C1102      O1103   1.273       .  A
O1103     Al1105   1.963       .  S
O1104      C1106   1.252       .  A
O1104     Al1105   1.844       .  S
Al1105     O1113   1.870       .  S
Al1105     O1115   1.934       .  S
Al1105     O1114   1.777       .  S
C1106      O1119   1.270       .  A
C1106      C1183   1.442       .  S
O1107     Al1109   1.857       .  S
O1108      C1121   1.256       .  A
Al1109     O1119   1.940       .  S
Al1109     O1114   1.783       .  S
O1110      C1117   1.273       .  A
O1111      C1120   1.278       .  A
O1111     Al1118   1.985       .  S
O1112     Al1118   1.922       .  S
O1113      C1120   1.252       .  A
O1114     Al1118   1.770       .  S
O1115      C1116   1.266       .  A
C1116      C1392   1.459       .  S
C1120      C1142   1.482       .  S
C1121      O1122   1.271       .  A
C1121      C1363   1.459       .  S
O1123      C1138   1.258       .  A
O1123     Al1131   1.868       .  S
C1124      O1134   1.262       .  A
C1124      O1125   1.273       .  A
O1125     Al1127   1.963       .  S
O1126      C1128   1.252       .  A
O1126     Al1127   1.844       .  S
Al1127     O1135   1.870       .  S
Al1127     O1137   1.934       .  S
Al1127     O1136   1.777       .  S
C1128      O1141   1.270       .  A
O1129     Al1131   1.857       .  S
O1130      C1143   1.256       .  A
Al1131     O1141   1.940       .  S
Al1131     O1136   1.783       .  S
O1132      C1139   1.273       .  A
O1133      C1142   1.278       .  A
O1133     Al1140   1.985       .  S
O1134     Al1140   1.922       .  S
O1135      C1142   1.252       .  A
O1136     Al1140   1.770       .  S
O1137      C1138   1.266       .  A
C1138      C1304   1.459       .  S
C1143      O1144   1.271       .  A
C1143      C1341   1.459       .  S
O1145      C1160   1.271       .  A
O1145     Al1153   1.969       .  S
C1146      O1156   1.273       .  A
C1146      O1147   1.262       .  A
C1146      C1366   1.505       .  S
O1147     Al2557   1.922       .  S
O1148      C1150   1.273       .  A
O1148     Al2557   1.959       .  S
Al1149     O2555   1.922   1_455  S
Al1149     O2556   1.959   1_455  S
Al1149     O1157   1.985       .  S
Al1149     O1159   1.844       .  S
Al1149     O1158   1.770       .  S
C1150      O2571   1.253       .  A
C1150      C1270   1.459       .  S
O1151      C1161   1.270       .  A
O1151     Al1153   1.940       .  S
O1152      C1165   1.266       .  A
O1152     Al1162   1.934       .  S
Al1153     O1166   1.868       .  S
Al1153     O1163   1.857   1_455  S
Al1153     O1158   1.783       .  S
O1154      C1161   1.252   1_655  A
O1154     Al1162   1.844   1_655  S
O1155      C1164   1.252       .  A
O1155     Al1162   1.869       .  S
O1156     Al2570   1.963       .  S
O1157      C1164   1.278       .  A
O1158     Al1162   1.777       .  S
O1159      C1160   1.256       .  A
C1161      C2602   1.442   1_455  S
Al1162     O2564   1.963   1_455  S
O1163      C2558   1.253       .  A
C1164      C1186   1.481       .  S
C1165      O1166   1.258       .  A
O1167      C1182   1.271       .  A
O1167     Al1175   1.970       .  S
C1168      O1178   1.273       .  A
C1168      O1169   1.262       .  A
C1168      C1388   1.505       .  S
O1169     Al1171   1.921       .  S
O1170      C1172   1.273       .  A
O1170     Al1171   1.959       .  S
Al1171     O1179   1.984       .  S
Al1171     O1181   1.844       .  S
Al1171     O1180   1.770       .  S
C1172      O1185   1.253       .  A
C1172      C1358   1.459       .  S
O1173      C1183   1.270       .  A
O1173     Al1175   1.940       .  S
O1174      C1187   1.266       .  A
O1174     Al1184   1.934       .  S
Al1175     O1188   1.868       .  S
Al1175     O1185   1.857       .  S
Al1175     O1180   1.783       .  S
O1176      C1183   1.252       .  A
O1176     Al1184   1.844       .  S
O1177      C1186   1.252       .  A
O1177     Al1184   1.870       .  S
O1178     Al1184   1.964       .  S
O1179      C1186   1.278       .  A
O1180     Al1184   1.777       .  S
O1181      C1182   1.256       .  A
C1187      O1188   1.258       .  A
O1189      C1204   1.258       .  A
O1189     Al1197   1.868       .  S
C1190      O1200   1.262       .  A
C1190      O1191   1.273       .  A
O1191     Al2601   1.963   1_455  S
O1192      C1194   1.252       .  A
O1192     Al1193   1.844       .  S
Al1193     O2599   1.963       .  S
Al1193     O1201   1.870       .  S
Al1193     O1203   1.934       .  S
Al1193     O1202   1.777       .  S
C1194      O1207   1.270       .  A
C1194      C2569   1.442       .  S
O1195      C1909   1.253       .  A
O1195     Al1197   1.857       .  S
O1196      C1209   1.256       .  A
Al1197     O1207   1.940       .  S
Al1197     O1202   1.783       .  S
O1198      C1205   1.273       .  A
O1198     Al1910   1.960   1_455  S
O1199      C1208   1.278       .  A
O1199     Al1206   1.985       .  S
O1200     Al2614   1.922   1_455  S
O1201      C1208   1.252       .  A
O1202     Al1206   1.770       .  S
O1203      C1204   1.266       .  A
C1204      C1370   1.459       .  S
C1205      O1899   1.253   1_565  A
Al1206     O1902   1.960       .  S
Al1206     O2608   1.922       .  S
C1208      C1230   1.482       .  S
C1209      O1210   1.271       .  A
C1209      C1275   1.459       .  S
O1211      C1226   1.259       .  A
O1211     Al1219   1.868       .  S
C1212      O1222   1.262       .  A
C1212      O1213   1.273       .  A
O1213     Al1215   1.963       .  S
O1214      C1216   1.252       .  A
O1214     Al1215   1.844       .  S
Al1215     O1223   1.870       .  S
Al1215     O1225   1.934       .  S
Al1215     O1224   1.777       .  S
C1216      O1229   1.270   1_556  A
O1217     Al1219   1.857   1_554  S
O1218      C1231   1.256       .  A
Al1219     O1229   1.940   1_556  S
Al1219     O1224   1.783       .  S
O1220      C1227   1.273       .  A
O1221      C1230   1.278       .  A
O1221     Al1228   1.985       .  S
O1222     Al1228   1.922       .  S
O1223      C1230   1.252       .  A
O1224     Al1228   1.770       .  S
O1225      C1226   1.266       .  A
C1226      C1282   1.459   1_556  S
C1231      O1232   1.271       .  A
C1231      C1253   1.459       .  S
O1233      C1248   1.259       .  A
O1233     Al1241   1.868       .  S
C1234      O1244   1.262       .  A
C1234      O1235   1.273       .  A
O1235     Al2645   1.963   1_455  S
O1236      C1238   1.252       .  A
O1236     Al1237   1.844       .  S
Al1237     O2643   1.963       .  S
Al1237     O1245   1.870       .  S
Al1237     O1247   1.934       .  S
Al1237     O1246   1.777       .  S
C1238      O1251   1.270   1_556  A
C1238      C2701   1.442   1_556  S
O1239      C2657   1.253   1_554  A
O1239     Al1241   1.857   1_554  S
O1240      C1253   1.256       .  A
O1240     Al1250   1.844       .  S
Al1241     O1254   1.969       .  S
Al1241     O1251   1.940   1_556  S
Al1241     O1246   1.783       .  S
O1242      C1249   1.273       .  A
O1242     Al2658   1.959   1_455  S
O1243      C1252   1.278       .  A
O1243     Al1250   1.985       .  S
O1244     Al2658   1.922   1_455  S
O1245      C1252   1.252       .  A
O1246     Al1250   1.770       .  S
O1247      C1248   1.266       .  A
C1249      O2647   1.253   1_556  A
Al1250     O2650   1.959       .  S
Al1250     O2652   1.922       .  S
C1252      C1274   1.482       .  S
C1253      O1254   1.271       .  A
O1255      C1270   1.258       .  A
O1255     Al1263   1.868       .  S
C1256      O1266   1.263       .  A
C1256      O1257   1.273       .  A
O1257     Al1259   1.963       .  S
O1258      C1260   1.252       .  A
O1258     Al1259   1.844       .  S
Al1259     O1267   1.870       .  S
Al1259     O1269   1.934       .  S
Al1259     O1268   1.777       .  S
C1260      O1273   1.270       .  A
C1260      C1381   1.442       .  S
O1261      C1271   1.253       .  A
O1261     Al1263   1.857       .  S
O1262      C1275   1.256       .  A
O1262     Al1272   1.844       .  S
Al1263     O1276   1.969       .  S
Al1263     O1273   1.940       .  S
Al1263     O1268   1.783       .  S
O1264      C1271   1.273       .  A
O1264     Al1272   1.959       .  S
O1265      C1274   1.278       .  A
O1265     Al1272   1.985       .  S
O1266     Al1272   1.922       .  S
O1267      C1274   1.252       .  A
O1268     Al1272   1.770       .  S
O1269      C1270   1.266       .  A
C1275      O1276   1.271       .  A
O1277      C1292   1.271       .  A
O1277     Al1285   1.970       .  S
C1278      O1288   1.273       .  A
C1278      O1279   1.262       .  A
O1279     Al2689   1.921       .  S
O1280      C1282   1.273       .  A
O1280     Al2689   1.959       .  S
Al1281     O2687   1.921   1_455  S
Al1281     O2688   1.959   1_455  S
Al1281     O1289   1.984       .  S
Al1281     O1291   1.844       .  S
Al1281     O1290   1.770       .  S
C1282      O2703   1.253   1_554  A
O1283      C1293   1.270   1_556  A
O1283     Al1285   1.940   1_556  S
O1284      C1297   1.266       .  A
O1284     Al1294   1.934       .  S
Al1285     O1298   1.868       .  S
Al1285     O1295   1.857   1_454  S
Al1285     O1290   1.783       .  S
O1286      C1293   1.252   1_655  A
O1286     Al1294   1.844   1_655  S
O1287      C1296   1.252       .  A
O1287     Al1294   1.870       .  S
O1288     Al2702   1.964       .  S
O1289      C1296   1.278       .  A
O1290     Al1294   1.777       .  S
O1291      C1292   1.256       .  A
C1293      C2646   1.442   1_454  S
Al1294     O2696   1.964   1_455  S
O1295      C2690   1.253   1_556  A
C1296      C1318   1.482       .  S
C1297      O1298   1.258       .  A
O1299      C1314   1.271       .  A
O1299     Al1307   1.969       .  S
C1300      O1310   1.273       .  A
C1300      O1301   1.262       .  A
O1301     Al1303   1.922       .  S
O1302      C1304   1.273       .  A
O1302     Al1303   1.959       .  S
Al1303     O1311   1.985       .  S
Al1303     O1313   1.844       .  S
Al1303     O1312   1.770       .  S
C1304      O1317   1.253       .  A
O1305      C1315   1.270       .  A
O1305     Al1307   1.940       .  S
O1306      C1319   1.266       .  A
O1306     Al1316   1.934       .  S
Al1307     O1320   1.868       .  S
Al1307     O1317   1.857       .  S
Al1307     O1312   1.783       .  S
O1308      C1315   1.252       .  A
O1308     Al1316   1.844       .  S
O1309      C1318   1.252       .  A
O1309     Al1316   1.869       .  S
O1310     Al1316   1.963       .  S
O1311      C1318   1.278       .  A
O1312     Al1316   1.777       .  S
O1313      C1314   1.256       .  A
C1315      C1326   1.442       .  S
C1319      O1320   1.258       .  A
O1321      C1336   1.259       .  A
O1321     Al1329   1.868       .  S
C1322      O1332   1.262       .  A
C1322      O1323   1.273       .  A
O1323     Al1325   1.963       .  S
O1324      C1326   1.252       .  A
O1324     Al1325   1.844       .  S
Al1325     O1333   1.870       .  S
Al1325     O1335   1.934       .  S
Al1325     O1334   1.777       .  S
C1326      O1339   1.270       .  A
O1327      C1337   1.253       .  A
O1327     Al1329   1.857       .  S
O1328      C1341   1.256       .  A
O1328     Al1338   1.844       .  S
Al1329     O1342   1.969       .  S
Al1329     O1339   1.940       .  S
Al1329     O1334   1.783       .  S
O1330      C1337   1.273       .  A
O1330     Al1338   1.960       .  S
O1331      C1340   1.278       .  A
O1331     Al1338   1.985       .  S
O1332     Al1338   1.922       .  S
O1333      C1340   1.252       .  A
O1334     Al1338   1.770       .  S
O1335      C1336   1.266       .  A
C1340      C1362   1.482       .  S
C1341      O1342   1.271       .  A
O1343      C1358   1.258       .  A
O1343     Al1351   1.868       .  S
C1344      O1354   1.262       .  A
C1344      O1345   1.273       .  A
O1345     Al1347   1.963       .  S
O1346      C1348   1.252       .  A
O1346     Al1347   1.844       .  S
Al1347     O1355   1.870       .  S
Al1347     O1357   1.934       .  S
Al1347     O1356   1.777       .  S
C1348      O1361   1.270       .  A
C1348      C1403   1.442       .  S
O1349      C1359   1.253       .  A
O1349     Al1351   1.857       .  S
O1350      C1363   1.256       .  A
O1350     Al1360   1.844       .  S
Al1351     O1364   1.969       .  S
Al1351     O1361   1.940       .  S
Al1351     O1356   1.783       .  S
O1352      C1359   1.273       .  A
O1352     Al1360   1.960       .  S
O1353      C1362   1.278       .  A
O1353     Al1360   1.985       .  S
O1354     Al1360   1.922       .  S
O1355      C1362   1.252       .  A
O1356     Al1360   1.770       .  S
O1357      C1358   1.266       .  A
C1363      O1364   1.271       .  A
O1365      C1380   1.271       .  A
O1365     Al1373   1.970       .  S
C1366      O1376   1.273       .  A
C1366      O1367   1.262       .  A
O1367     Al1369   1.921       .  S
O1368      C1370   1.273       .  A
O1368     Al1369   1.959       .  S
Al1369     O1377   1.984       .  S
Al1369     O1379   1.844       .  S
Al1369     O1378   1.770       .  S
C1370      O1383   1.253       .  A
O1371      C1381   1.270       .  A
O1371     Al1373   1.940       .  S
O1372      C1385   1.266       .  A
O1372     Al1382   1.934       .  S
Al1373     O1386   1.868       .  S
Al1373     O1383   1.857       .  S
Al1373     O1378   1.783       .  S
O1374      C1381   1.252       .  A
O1374     Al1382   1.844       .  S
O1375      C1384   1.252       .  A
O1375     Al1382   1.870       .  S
O1376     Al1382   1.964       .  S
O1377      C1384   1.278       .  A
O1378     Al1382   1.777       .  S
O1379      C1380   1.256       .  A
C1384      C1406   1.482       .  S
C1385      O1386   1.258       .  A
O1387      C1402   1.271       .  A
O1387     Al1395   1.969       .  S
C1388      O1398   1.273       .  A
C1388      O1389   1.263       .  A
O1389     Al1391   1.922       .  S
O1390      C1392   1.273       .  A
O1390     Al1391   1.959       .  S
Al1391     O1399   1.985       .  S
Al1391     O1401   1.844       .  S
Al1391     O1400   1.770       .  S
C1392      O1405   1.253       .  A
O1393      C1403   1.270       .  A
O1393     Al1395   1.940       .  S
O1394      C1407   1.266       .  A
O1394     Al1404   1.934       .  S
Al1395     O1408   1.868       .  S
Al1395     O1405   1.857       .  S
Al1395     O1400   1.783       .  S
O1396      C1403   1.252       .  A
O1396     Al1404   1.844       .  S
O1397      C1406   1.252       .  A
O1397     Al1404   1.869       .  S
O1398     Al1404   1.963       .  S
O1399      C1406   1.278       .  A
O1400     Al1404   1.777       .  S
O1401      C1402   1.256       .  A
C1407      O1408   1.259       .  A
O1409      C1424   1.259       .  A
O1409     Al1417   1.868       .  S
C1410      O1420   1.262       .  A
C1410      O1411   1.273       .  A
C1410      C1806   1.505       .  S
O1412      C1414   1.252   1_455  A
O1412     Al1413   1.844   1_455  S
Al1413     O1421   1.870       .  S
Al1413     O1423   1.934       .  S
Al1413     O1422   1.777       .  S
C1414      O1427   1.270       .  A
O1415     Al1417   1.857   1_455  S
O1416      C1429   1.256       .  A
O1416     Al1426   1.844       .  S
Al1417     O1430   1.969       .  S
Al1417     O1427   1.940       .  S
Al1417     O1422   1.783       .  S
O1418      C1425   1.273       .  A
O1419      C1428   1.278       .  A
O1419     Al1426   1.985       .  S
O1421      C1428   1.252       .  A
O1422     Al1426   1.770       .  S
O1423      C1424   1.266       .  A
C1424      C1700   1.459       .  S
C1425      C1891   1.460       .  S
C1428      C1450   1.482       .  S
C1429      O1430   1.271       .  A
C1429      C1671   1.459       .  S
O1431      C1446   1.259       .  A
O1431     Al1439   1.868       .  S
C1432      O1442   1.262       .  A
C1432      O1433   1.273       .  A
C1432      C1828   1.505       .  S
O1433     Al1435   1.963       .  S
O1434      C1436   1.252       .  A
O1434     Al1435   1.844       .  S
Al1435     O1443   1.870       .  S
Al1435     O1445   1.934       .  S
Al1435     O1444   1.777       .  S
C1436      O1449   1.270       .  A
C1436      C2195   1.442   1_545  S
O1437      C1447   1.253       .  A
O1437     Al1439   1.857       .  S
O1438      C1451   1.256       .  A
O1438     Al1448   1.844       .  S
Al1439     O1452   1.969       .  S
Al1439     O1449   1.940       .  S
Al1439     O1444   1.783       .  S
O1440      C1447   1.273       .  A
O1440     Al1448   1.960       .  S
O1441      C1450   1.278       .  A
O1441     Al1448   1.985       .  S
O1442     Al1448   1.922       .  S
O1443      C1450   1.252       .  A
O1444     Al1448   1.770       .  S
O1445      C1446   1.266       .  A
C1446      C1612   1.459       .  S
C1447      C1803   1.460       .  S
C1451      O1452   1.271       .  A
C1451      C1649   1.459       .  S
O1453      C1468   1.271       .  A
O1453     Al1461   1.970       .  S
C1454      O1464   1.273       .  A
C1454      O1455   1.262       .  A
C1454      C1586   1.505       .  S
O1455     Al1457   1.921       .  S
O1456      C1458   1.273       .  A
O1456     Al1457   1.959       .  S
Al1457     O1465   1.984       .  S
Al1457     O1467   1.844       .  S
Al1457     O1466   1.770       .  S
C1458      O1471   1.253   1_554  A
C1458      C1754   1.459   1_554  S
O1459      C1469   1.270   1_556  A
O1459     Al1461   1.940   1_556  S
O1460      C1473   1.266       .  A
O1460     Al1470   1.934       .  S
Al1461     O1474   1.868       .  S
Al1461     O1471   1.857   1_554  S
Al1461     O1466   1.783       .  S
O1462      C1469   1.252       .  A
O1462     Al1470   1.844       .  S
O1463      C1472   1.252       .  A
O1463     Al1470   1.870       .  S
O1464     Al1470   1.964       .  S
O1465      C1472   1.278       .  A
O1466     Al1470   1.777       .  S
O1467      C1468   1.256       .  A
C1468      C1776   1.459       .  S
C1469      C2228   1.442   1_554  S
C1472      C1494   1.482       .  S
C1473      O1474   1.258       .  A
C1473      C1931   1.460   1_554  S
O1475      C1490   1.271       .  A
O1475     Al1483   1.969       .  S
C1476      O1486   1.273       .  A
C1476      O1477   1.262       .  A
C1476      C1608   1.505       .  S
O1477     Al1479   1.922       .  S
O1478      C1480   1.273       .  A
O1478     Al1479   1.959       .  S
Al1479     O1487   1.985       .  S
Al1479     O1489   1.844       .  S
Al1479     O1488   1.770       .  S
C1480      O1493   1.253       .  A
C1480      C1644   1.459       .  S
O1481      C1491   1.270       .  A
O1481     Al1483   1.940       .  S
O1482      C1495   1.266       .  A
O1482     Al1492   1.934       .  S
Al1483     O1496   1.868       .  S
Al1483     O1493   1.857       .  S
Al1483     O1488   1.783       .  S
O1484      C1491   1.252       .  A
O1484     Al1492   1.844       .  S
O1485      C1494   1.252       .  A
O1485     Al1492   1.869       .  S
O1486     Al1492   1.963       .  S
O1487      C1494   1.278       .  A
O1488     Al1492   1.777       .  S
O1489      C1490   1.256       .  A
C1490      C1798   1.459       .  S
C1491      C2140   1.442       .  S
C1495      O1496   1.259       .  A
C1495      C1843   1.459       .  S
O1497      C1512   1.258       .  A
O1497     Al1505   1.868       .  S
C1498      O1508   1.262       .  A
C1498      O1499   1.273       .  A
C1498      C1894   1.505       .  S
O1499     Al1501   1.963       .  S
O1500      C1502   1.252       .  A
O1500     Al1501   1.844       .  S
Al1501     O1509   1.870       .  S
Al1501     O1511   1.934       .  S
Al1501     O1510   1.777       .  S
C1502      O1515   1.270       .  A
C1502      C2261   1.442   1_545  S
O1503      C1513   1.253       .  A
O1503     Al1505   1.857       .  S
O1504      C1517   1.256       .  A
O1504     Al1514   1.844       .  S
Al1505     O1518   1.969       .  S
Al1505     O1515   1.940       .  S
Al1505     O1510   1.783       .  S
O1506      C1513   1.273       .  A
O1506     Al1514   1.959       .  S
O1507      C1516   1.278       .  A
O1507     Al1514   1.985       .  S
O1508     Al1514   1.922       .  S
O1509      C1516   1.252       .  A
O1510     Al1514   1.770       .  S
O1511      C1512   1.266       .  A
C1512      C1678   1.459       .  S
C1513      C1869   1.459       .  S
C1516      C1538   1.482       .  S
C1517      O1518   1.271       .  A
C1517      C1737   1.459       .  S
O1519      C1534   1.258       .  A
O1519     Al1527   1.868       .  S
C1520      O1530   1.262       .  A
C1520      O1521   1.273       .  A
C1520      C1916   1.505       .  S
O1521     Al1523   1.963       .  S
O1522      C1524   1.252       .  A
O1522     Al1523   1.844       .  S
Al1523     O1531   1.870       .  S
Al1523     O1533   1.934       .  S
Al1523     O1532   1.777       .  S
C1524      O1537   1.270   1_556  A
C1524      C2173   1.442   1_546  S
O1525      C1535   1.253   1_554  A
O1525     Al1527   1.857   1_554  S
O1526      C1539   1.256       .  A
O1526     Al1536   1.844       .  S
Al1527     O1540   1.969       .  S
Al1527     O1537   1.940   1_556  S
Al1527     O1532   1.783       .  S
O1528      C1535   1.273       .  A
O1528     Al1536   1.959       .  S
O1529      C1538   1.278       .  A
O1529     Al1536   1.985       .  S
O1530     Al1536   1.922       .  S
O1531      C1538   1.252       .  A
O1532     Al1536   1.770       .  S
O1533      C1534   1.266       .  A
C1534      C1590   1.459   1_556  S
C1535      C1781   1.459   1_556  S
C1539      O1540   1.271       .  A
C1539      C1759   1.459       .  S
O1541      C1556   1.271       .  A
O1541     Al1549   1.970       .  S
C1542      O1552   1.273       .  A
C1542      O1543   1.262       .  A
C1542      C1674   1.505       .  S
O1543     Al1545   1.921       .  S
O1544      C1546   1.273       .  A
O1544     Al1545   1.959       .  S
Al1545     O1553   1.985       .  S
Al1545     O1555   1.844       .  S
Al1545     O1554   1.770       .  S
C1546      O1559   1.252       .  A
C1546      C1732   1.459       .  S
O1547      C1557   1.270       .  A
O1547     Al1549   1.940       .  S
O1548      C1561   1.266       .  A
O1548     Al1558   1.934       .  S
Al1549     O1562   1.868       .  S
Al1549     O1559   1.857       .  S
Al1549     O1554   1.783       .  S
O1550      C1557   1.252       .  A
O1550     Al1558   1.844       .  S
O1551      C1560   1.252       .  A
O1551     Al1558   1.870       .  S
O1552     Al1558   1.964       .  S
O1553      C1560   1.278       .  A
O1554     Al1558   1.777       .  S
O1555      C1556   1.256       .  A
C1556      C1864   1.459       .  S
C1557      C2206   1.442       .  S
C1560      C1582   1.482       .  S
C1561      O1562   1.258       .  A
C1561      C1909   1.460       .  S
O1563      C1578   1.271       .  A
O1563     Al1571   1.969       .  S
C1564      O1574   1.273       .  A
C1564      O1565   1.263       .  A
C1564      C1696   1.505       .  S
O1566      C1568   1.273       .  A
Al1567     O1575   1.985       .  S
Al1567     O1577   1.844       .  S
Al1567     O1576   1.770       .  S
C1568      C1666   1.459       .  S
O1569      C1579   1.270       .  A
O1569     Al1571   1.940       .  S
O1570      C1583   1.266       .  A
O1570     Al1580   1.934       .  S
Al1571     O1584   1.868       .  S
Al1571     O1581   1.857       .  S
Al1571     O1576   1.783       .  S
O1572      C1579   1.252       .  A
O1572     Al1580   1.844       .  S
O1573      C1582   1.252       .  A
O1573     Al1580   1.869       .  S
O1575      C1582   1.278       .  A
O1576     Al1580   1.777       .  S
O1577      C1578   1.256       .  A
C1578      C1886   1.459       .  S
C1583      O1584   1.259       .  A
C1583      C1821   1.459       .  S
O1585      C1600   1.271       .  A
O1585     Al2297   1.969   1_545  S
C1586      O1596   1.273       .  A
C1586      O1587   1.262       .  A
O1587     Al2293   1.922       .  S
O1588      C1590   1.273       .  A
O1588     Al1589   1.959       .  S
Al1589     O2291   1.922   1_545  S
Al1589     O2301   1.985   1_545  S
Al1589     O1599   1.844       .  S
Al1589     O2302   1.770   1_545  S
C1590      O1603   1.253   1_544  A
O1591      C1601   1.270   1_556  A
O1591     Al1593   1.940   1_556  S
O1592      C1605   1.266       .  A
O1592     Al1602   1.934       .  S
Al1593     O2289   1.969       .  S
Al1593     O1606   1.868       .  S
Al1593     O2307   1.857   1_554  S
Al1593     O1598   1.783       .  S
O1594      C1601   1.252       .  A
O1594     Al1602   1.844       .  S
O1595      C1604   1.252       .  A
O1595     Al1602   1.869       .  S
O1596     Al1602   1.963       .  S
O1597      C1604   1.278       .  A
O1597     Al2293   1.985       .  S
O1598     Al2293   1.770       .  S
O1598     Al1602   1.777       .  S
O1599      C1600   1.256       .  A
C1600      C1996   1.459       .  S
C1601      C1744   1.442   1_554  S
O1603     Al2297   1.857   1_556  S
C1604      C1626   1.482       .  S
C1605      O1606   1.258       .  A
C1605      C1953   1.459   1_554  S
O1607      C1622   1.271       .  A
O1607     Al2319   1.970   1_545  S
C1608      O1618   1.273       .  A
C1608      O1609   1.262       .  A
O1610      C1612   1.273       .  A
Al1611     O2323   1.985   1_545  S
Al1611     O1621   1.844       .  S
Al1611     O2324   1.770   1_545  S
O1613      C1623   1.270       .  A
O1613     Al1615   1.940       .  S
O1614      C1627   1.266       .  A
O1614     Al1624   1.934       .  S
Al1615     O2311   1.970       .  S
Al1615     O1628   1.868       .  S
Al1615     O2329   1.857       .  S
Al1615     O1620   1.783       .  S
O1616      C1623   1.252       .  A
O1616     Al1624   1.844       .  S
O1617      C1626   1.252       .  A
O1617     Al1624   1.870       .  S
O1619      C1626   1.278       .  A
O1619     Al2315   1.985       .  S
O1620     Al2315   1.770       .  S
O1620     Al1624   1.777       .  S
O1621      C1622   1.256       .  A
C1622      C2018   1.459       .  S
O1625     Al2319   1.857       .  S
C1627      O1628   1.258       .  A
C1627      C2041   1.460       .  S
O1629      C1644   1.258       .  A
O1629     Al1637   1.868       .  S
C1630      O1640   1.262       .  A
C1630      O1631   1.273       .  A
C1630      C2026   1.505       .  S
O1632      C1634   1.252   1_455  A
O1632     Al1633   1.844   1_455  S
Al1633     O1641   1.870       .  S
Al1633     O1643   1.934       .  S
Al1633     O1642   1.777       .  S
C1634      O1647   1.270       .  A
O1635     Al1637   1.857   1_455  S
O1636      C1649   1.256       .  A
O1636     Al1646   1.844       .  S
Al1637     O1650   1.969       .  S
Al1637     O1647   1.940       .  S
Al1637     O1642   1.783       .  S
O1638      C1645   1.273       .  A
O1639      C1648   1.278       .  A
O1639     Al1646   1.985       .  S
O1641      C1648   1.252       .  A
O1642     Al1646   1.770       .  S
O1643      C1644   1.266       .  A
C1645      C2023   1.459       .  S
C1648      C1670   1.482       .  S
C1649      O1650   1.271       .  A
O1651      C1666   1.259       .  A
O1651     Al1659   1.868       .  S
C1652      O1662   1.262       .  A
C1652      O1653   1.273       .  A
C1652      C2048   1.505       .  S
O1653     Al1655   1.963       .  S
O1654      C1656   1.252       .  A
O1654     Al1655   1.844       .  S
Al1655     O1663   1.870       .  S
Al1655     O1665   1.934       .  S
Al1655     O1664   1.777       .  S
C1656      O1669   1.270       .  A
C1656      C1711   1.442       .  S
O1657      C1667   1.253       .  A
O1657     Al1659   1.857       .  S
O1658      C1671   1.256       .  A
O1658     Al1668   1.844       .  S
Al1659     O1672   1.969       .  S
Al1659     O1669   1.940       .  S
Al1659     O1664   1.783       .  S
O1660      C1667   1.273       .  A
O1660     Al1668   1.959       .  S
O1661      C1670   1.278       .  A
O1661     Al1668   1.985       .  S
O1662     Al1668   1.922       .  S
O1663      C1670   1.252       .  A
O1664     Al1668   1.770       .  S
O1665      C1666   1.266       .  A
C1667      C2111   1.459       .  S
C1671      O1672   1.271       .  A
O1673      C1688   1.271       .  A
O1673     Al2385   1.969   1_545  S
C1674      O1684   1.273       .  A
C1674      O1675   1.262       .  A
O1675     Al2381   1.922       .  S
O1676      C1678   1.273       .  A
O1676     Al1677   1.959       .  S
Al1677     O2379   1.922   1_545  S
Al1677     O2389   1.985   1_545  S
Al1677     O1687   1.844       .  S
Al1677     O2390   1.770   1_545  S
C1678      O1691   1.253   1_545  A
O1679      C1689   1.270       .  A
O1679     Al1681   1.940       .  S
O1680      C1693   1.266       .  A
O1680     Al1690   1.934       .  S
Al1681     O2377   1.969       .  S
Al1681     O1694   1.868       .  S
Al1681     O2395   1.857       .  S
Al1681     O1686   1.783       .  S
O1682      C1689   1.252       .  A
O1682     Al1690   1.844       .  S
O1683      C1692   1.252       .  A
O1683     Al1690   1.869       .  S
O1684     Al1690   1.963       .  S
O1685      C1692   1.278       .  A
O1685     Al2381   1.985       .  S
O1686     Al2381   1.770       .  S
O1686     Al1690   1.777       .  S
O1687      C1688   1.256       .  A
C1688      C2084   1.459       .  S
C1689      C1722   1.442       .  S
O1691     Al2385   1.857       .  S
C1692      C1714   1.481       .  S
C1693      O1694   1.259       .  A
C1693      C1975   1.459       .  S
O1695      C1710   1.271       .  A
O1695     Al2407   1.970   1_545  S
C1696      O1706   1.273       .  A
C1696      O1697   1.262       .  A
O1697     Al2403   1.921       .  S
O1698      C1700   1.273       .  A
O1698     Al1699   1.959       .  S
Al1699     O2401   1.921   1_545  S
Al1699     O2411   1.984   1_545  S
Al1699     O1709   1.844       .  S
Al1699     O2412   1.770   1_545  S
C1700      O1713   1.253   1_545  A
O1701      C1711   1.270       .  A
O1701     Al1703   1.940       .  S
O1702      C1715   1.266       .  A
O1702     Al1712   1.935       .  S
Al1703     O2399   1.970       .  S
Al1703     O1716   1.868       .  S
Al1703     O2417   1.857       .  S
Al1703     O1708   1.783       .  S
O1704      C1711   1.252       .  A
O1704     Al1712   1.844       .  S
O1705      C1714   1.252       .  A
O1705     Al1712   1.870       .  S
O1706     Al1712   1.964       .  S
O1707      C1714   1.278       .  A
O1707     Al2403   1.984       .  S
O1708     Al2403   1.770       .  S
O1708     Al1712   1.777       .  S
O1709      C1710   1.256       .  A
C1710      C2106   1.459       .  S
O1713     Al2407   1.857       .  S
C1715      O1716   1.258       .  A
C1715      C2063   1.460       .  S
O1717      C1732   1.259       .  A
O1717     Al1725   1.868       .  S
C1718      O1728   1.262       .  A
C1718      O1719   1.273       .  A
C1718      C1960   1.505       .  S
O1719     Al1721   1.963       .  S
O1720      C1722   1.252       .  A
O1720     Al1721   1.844       .  S
Al1721     O1729   1.870       .  S
Al1721     O1731   1.934       .  S
Al1721     O1730   1.777       .  S
C1722      O1735   1.270       .  A
O1723      C1733   1.253       .  A
O1723     Al1725   1.857       .  S
O1724      C1737   1.256       .  A
O1724     Al1734   1.844       .  S
Al1725     O1738   1.969       .  S
Al1725     O1735   1.940       .  S
Al1725     O1730   1.783       .  S
O1726      C1733   1.273       .  A
O1726     Al1734   1.960       .  S
O1727      C1736   1.278       .  A
O1727     Al1734   1.986       .  S
O1728     Al1734   1.922       .  S
O1729      C1736   1.252       .  A
O1730     Al1734   1.770       .  S
O1731      C1732   1.266       .  A
C1733      C2089   1.460       .  S
C1736      C1758   1.482       .  S
C1737      O1738   1.271       .  A
O1739      C1754   1.258       .  A
O1739     Al1747   1.868       .  S
C1740      O1750   1.262       .  A
C1740      O1741   1.273       .  A
C1740      C1938   1.505       .  S
O1741     Al1743   1.963       .  S
O1742      C1744   1.252       .  A
O1742     Al1743   1.844       .  S
Al1743     O1751   1.870       .  S
Al1743     O1753   1.934       .  S
Al1743     O1752   1.777       .  S
C1744      O1757   1.270   1_556  A
O1745      C1755   1.253   1_554  A
O1745     Al1747   1.857   1_554  S
O1746      C1759   1.256       .  A
O1746     Al1756   1.844       .  S
Al1747     O1760   1.969       .  S
Al1747     O1757   1.940   1_556  S
Al1747     O1752   1.783       .  S
O1748      C1755   1.273       .  A
O1748     Al1756   1.960       .  S
O1749      C1758   1.278       .  A
O1749     Al1756   1.985       .  S
O1750     Al1756   1.922       .  S
O1751      C1758   1.252       .  A
O1752     Al1756   1.770       .  S
O1753      C1754   1.266       .  A
C1755      C2001   1.460   1_556  S
C1759      O1760   1.271       .  A
O1761      C1776   1.271       .  A
O1761     Al1769   1.969       .  S
C1762      O1772   1.273       .  A
C1762      O1763   1.262       .  A
C1762      C1982   1.505       .  S
O1763     Al1765   1.922       .  S
O1764      C1766   1.273       .  A
O1764     Al1765   1.959       .  S
Al1765     O1773   1.985       .  S
Al1765     O1775   1.844       .  S
Al1765     O1774   1.770       .  S
C1766      O1779   1.253   1_554  A
C1766      C1952   1.459   1_554  S
O1767      C1777   1.270   1_556  A
O1767     Al1769   1.940   1_556  S
O1768      C1781   1.266       .  A
O1768     Al1778   1.934       .  S
Al1769     O1782   1.868       .  S
Al1769     O1779   1.857   1_554  S
Al1769     O1774   1.783       .  S
O1770      C1777   1.252       .  A
O1770     Al1778   1.844       .  S
O1771      C1780   1.252       .  A
O1771     Al1778   1.869       .  S
O1772     Al1778   1.963       .  S
O1773      C1780   1.278       .  A
O1774     Al1778   1.777       .  S
O1775      C1776   1.256       .  A
C1777      C1920   1.442   1_554  S
C1780      C1802   1.482       .  S
C1781      O1782   1.259       .  A
O1783      C1798   1.271       .  A
O1783     Al1791   1.970       .  S
C1784      O1794   1.273       .  A
C1784      O1785   1.262       .  A
C1784      C2004   1.505       .  S
O1785     Al1787   1.921       .  S
O1786      C1788   1.273       .  A
O1786     Al1787   1.959       .  S
Al1787     O1795   1.985       .  S
Al1787     O1797   1.844       .  S
Al1787     O1796   1.770       .  S
C1788      O1801   1.253       .  A
C1788      C2040   1.459       .  S
O1789      C1799   1.270       .  A
O1789     Al1791   1.940       .  S
O1790      C1803   1.266       .  A
O1790     Al1800   1.934       .  S
Al1791     O1804   1.868       .  S
Al1791     O1801   1.857       .  S
Al1791     O1796   1.783       .  S
O1792      C1799   1.252       .  A
O1792     Al1800   1.844       .  S
O1793      C1802   1.252       .  A
O1793     Al1800   1.870       .  S
O1794     Al1800   1.964       .  S
O1795      C1802   1.278       .  A
O1796     Al1800   1.777       .  S
O1797      C1798   1.256       .  A
C1799      C1832   1.442       .  S
C1803      O1804   1.259       .  A
O1805      C1820   1.258       .  A
O1805     Al1813   1.868       .  S
C1806      O1816   1.262       .  A
C1806      O1807   1.273       .  A
O1807     Al1809   1.963       .  S
O1808      C1810   1.252       .  A
O1808     Al1809   1.844       .  S
Al1809     O1817   1.870       .  S
Al1809     O1819   1.934       .  S
Al1809     O1818   1.777       .  S
C1810      O1823   1.270       .  A
C1810      C1887   1.442       .  S
O1811      C2525   1.253   1_545  A
O1811     Al1813   1.857       .  S
O1812      C1825   1.256       .  A
O1812     Al2526   1.844       .  S
Al1813     O2530   1.969   1_545  S
Al1813     O1823   1.940       .  S
Al1813     O1818   1.783       .  S
O1814      C1821   1.273       .  A
O1814     Al2526   1.959       .  S
O1815      C1824   1.278       .  A
O1815     Al1822   1.985   1_545  S
O1816     Al1822   1.922   1_545  S
O1817      C1824   1.252       .  A
O1818     Al1822   1.770   1_545  S
O1819      C1820   1.266       .  A
C1820      C2096   1.459       .  S
C1821      O2515   1.253       .  A
Al1822     O2516   1.844       .  S
Al1822     O2518   1.959       .  S
C1824      C1846   1.482       .  S
C1825      O1826   1.271       .  A
C1825      C2067   1.459       .  S
O1826     Al2517   1.969       .  S
O1827      C1842   1.258       .  A
O1827     Al1835   1.868       .  S
C1828      O1838   1.262       .  A
C1828      O1829   1.273       .  A
O1829     Al1831   1.963       .  S
O1830      C1832   1.252       .  A
O1830     Al1831   1.844       .  S
Al1831     O1839   1.870       .  S
Al1831     O1841   1.934       .  S
Al1831     O1840   1.777       .  S
C1832      O1845   1.270       .  A
O1833      C2547   1.253   1_545  A
O1833     Al1835   1.857       .  S
O1834      C1847   1.256       .  A
O1834     Al2548   1.844       .  S
Al1835     O2552   1.969   1_545  S
Al1835     O1845   1.940       .  S
Al1835     O1840   1.783       .  S
O1836      C1843   1.273       .  A
O1836     Al2548   1.959       .  S
O1837      C1846   1.278       .  A
O1837     Al1844   1.985   1_545  S
O1838     Al1844   1.922   1_545  S
O1839      C1846   1.252       .  A
O1840     Al1844   1.770   1_545  S
O1841      C1842   1.266       .  A
C1842      C2008   1.459       .  S
C1843      O2537   1.253       .  A
Al1844     O2538   1.844       .  S
Al1844     O2540   1.959       .  S
C1847      O1848   1.271       .  A
C1847      C2045   1.459       .  S
O1848     Al2539   1.969       .  S
O1849      C1864   1.271       .  A
O1849     Al1857   1.969       .  S
C1850      O1860   1.273       .  A
C1850      O1851   1.262       .  A
C1850      C2070   1.505       .  S
O1852      C1854   1.273       .  A
Al1853     O1861   1.985       .  S
Al1853     O1863   1.844       .  S
Al1853     O1862   1.770       .  S
C1854      C1974   1.459       .  S
O1855      C1865   1.270       .  A
O1855     Al1857   1.940       .  S
O1856      C1869   1.266       .  A
O1856     Al1866   1.934       .  S
Al1857     O1870   1.868       .  S
Al1857     O1867   1.857       .  S
Al1857     O1862   1.783       .  S
O1858      C1865   1.252       .  A
O1858     Al1866   1.844       .  S
O1859      C1868   1.252       .  A
O1859     Al1866   1.869       .  S
O1861      C1868   1.278       .  A
O1862     Al1866   1.777       .  S
O1863      C1864   1.256       .  A
C1868      C1890   1.481       .  S
C1869      O1870   1.258       .  A
O1871      C1886   1.271       .  A
O1871     Al1879   1.970       .  S
C1872      O1882   1.273       .  A
C1872      O1873   1.262       .  A
C1872      C2092   1.505       .  S
O1873     Al1875   1.921       .  S
O1874      C1876   1.273       .  A
O1874     Al1875   1.959       .  S
Al1875     O1883   1.984       .  S
Al1875     O1885   1.844       .  S
Al1875     O1884   1.770       .  S
C1876      O1889   1.253       .  A
C1876      C2062   1.459       .  S
O1877      C1887   1.270       .  A
O1877     Al1879   1.940       .  S
O1878      C1891   1.266       .  A
O1878     Al1888   1.934       .  S
Al1879     O1892   1.868       .  S
Al1879     O1889   1.857       .  S
Al1879     O1884   1.783       .  S
O1880      C1887   1.252       .  A
O1880     Al1888   1.844       .  S
O1881      C1890   1.252       .  A
O1881     Al1888   1.870       .  S
O1882     Al1888   1.964       .  S
O1883      C1890   1.278       .  A
O1884     Al1888   1.777       .  S
O1885      C1886   1.256       .  A
C1891      O1892   1.258       .  A
O1893      C1908   1.258       .  A
O1893     Al1901   1.868       .  S
C1894      O1904   1.262       .  A
C1894      O1895   1.273       .  A
O1896      C1898   1.252   1_455  A
O1896     Al1897   1.844   1_455  S
Al1897     O1905   1.870       .  S
Al1897     O1907   1.934       .  S
Al1897     O1906   1.777       .  S
C1898      O1911   1.270       .  A
O1899     Al1901   1.857   1_455  S
O1900      C1913   1.256       .  A
O1900     Al2614   1.844       .  S
Al1901     O2618   1.969   1_545  S
Al1901     O1911   1.940       .  S
Al1901     O1906   1.783       .  S
O1902      C1909   1.273       .  A
O1903      C1912   1.278       .  A
O1903     Al1910   1.986   1_545  S
O1905      C1912   1.252       .  A
O1906     Al1910   1.770   1_545  S
O1907      C1908   1.266       .  A
C1908      C2074   1.459       .  S
Al1910     O2604   1.844       .  S
C1912      C1934   1.482       .  S
C1913      O1914   1.271       .  A
C1913      C1979   1.459       .  S
O1914     Al2605   1.969       .  S
O1915      C1930   1.259       .  A
O1915     Al1923   1.868       .  S
C1916      O1926   1.262       .  A
C1916      O1917   1.273       .  A
O1917     Al1919   1.963       .  S
O1918      C1920   1.252       .  A
O1918     Al1919   1.844       .  S
Al1919     O1927   1.870       .  S
Al1919     O1929   1.934       .  S
Al1919     O1928   1.777       .  S
C1920      O1933   1.270   1_556  A
O1921      C2635   1.253   1_544  A
O1921     Al1923   1.857   1_554  S
O1922      C1935   1.256       .  A
O1922     Al2636   1.844       .  S
Al1923     O2640   1.969   1_545  S
Al1923     O1933   1.940   1_556  S
Al1923     O1928   1.783       .  S
O1924      C1931   1.273       .  A
O1924     Al2636   1.960       .  S
O1925      C1934   1.278       .  A
O1925     Al1932   1.985   1_545  S
O1926     Al1932   1.922   1_545  S
O1927      C1934   1.252       .  A
O1928     Al1932   1.770   1_545  S
O1929      C1930   1.266       .  A
C1930      C1986   1.459   1_556  S
C1931      O2625   1.253   1_556  A
Al1932     O2626   1.844       .  S
Al1932     O2628   1.960       .  S
C1935      O1936   1.271       .  A
C1935      C1957   1.459       .  S
O1936     Al2627   1.969       .  S
O1937      C1952   1.258       .  A
O1937     Al1945   1.868       .  S
C1938      O1948   1.262       .  A
C1938      O1939   1.273       .  A
O1940      C1942   1.252   1_455  A
O1940     Al1941   1.844   1_455  S
Al1941     O1949   1.870       .  S
Al1941     O1951   1.934       .  S
Al1941     O1950   1.777       .  S
C1942      O1955   1.270   1_556  A
O1943     Al1945   1.857   1_454  S
O1944      C1957   1.256       .  A
O1944     Al1954   1.844       .  S
Al1945     O1958   1.969       .  S
Al1945     O1955   1.940   1_556  S
Al1945     O1950   1.783       .  S
O1946      C1953   1.273       .  A
O1947      C1956   1.278       .  A
O1947     Al1954   1.985       .  S
O1949      C1956   1.252       .  A
O1950     Al1954   1.770       .  S
O1951      C1952   1.266       .  A
C1956      C1978   1.482       .  S
C1957      O1958   1.271       .  A
O1959      C1974   1.258       .  A
O1959     Al1967   1.868       .  S
C1960      O1970   1.262       .  A
C1960      O1961   1.273       .  A
O1961     Al1963   1.963       .  S
O1962      C1964   1.252       .  A
O1962     Al1963   1.844       .  S
Al1963     O1971   1.870       .  S
Al1963     O1973   1.934       .  S
Al1963     O1972   1.777       .  S
C1964      O1977   1.270       .  A
C1964      C2085   1.442       .  S
O1965      C1975   1.253       .  A
O1965     Al1967   1.857       .  S
O1966      C1979   1.256       .  A
O1966     Al1976   1.844       .  S
Al1967     O1980   1.969       .  S
Al1967     O1977   1.940       .  S
Al1967     O1972   1.783       .  S
O1968      C1975   1.273       .  A
O1968     Al1976   1.959       .  S
O1969      C1978   1.278       .  A
O1969     Al1976   1.985       .  S
O1970     Al1976   1.922       .  S
O1971      C1978   1.252       .  A
O1972     Al1976   1.770       .  S
O1973      C1974   1.266       .  A
C1979      O1980   1.271       .  A
O1981      C1996   1.271       .  A
O1981     Al1989   1.970       .  S
C1982      O1992   1.273       .  A
C1982      O1983   1.262       .  A
O1984      C1986   1.273       .  A
Al1985     O1993   1.984       .  S
Al1985     O1995   1.844       .  S
Al1985     O1994   1.770       .  S
O1987      C1997   1.270   1_556  A
O1987     Al1989   1.940   1_556  S
O1988      C2001   1.266       .  A
O1988     Al1998   1.934       .  S
Al1989     O2002   1.868       .  S
Al1989     O1999   1.857   1_554  S
Al1989     O1994   1.783       .  S
O1990      C1997   1.252       .  A
O1990     Al1998   1.844       .  S
O1991      C2000   1.252       .  A
O1991     Al1998   1.870       .  S
O1993      C2000   1.278       .  A
O1994     Al1998   1.777       .  S
O1995      C1996   1.256       .  A
C2000      C2022   1.482       .  S
C2001      O2002   1.258       .  A
O2003      C2018   1.271       .  A
O2003     Al2011   1.969       .  S
C2004      O2014   1.273       .  A
C2004      O2005   1.262       .  A
O2005     Al2007   1.922       .  S
O2006      C2008   1.273       .  A
O2006     Al2007   1.959       .  S
Al2007     O2015   1.985       .  S
Al2007     O2017   1.844       .  S
Al2007     O2016   1.770       .  S
C2008      O2021   1.253       .  A
O2009      C2019   1.270       .  A
O2009     Al2011   1.940       .  S
O2010      C2023   1.266       .  A
O2010     Al2020   1.934       .  S
Al2011     O2024   1.868       .  S
Al2011     O2021   1.857       .  S
Al2011     O2016   1.783       .  S
O2012      C2019   1.252       .  A
O2012     Al2020   1.844       .  S
O2013      C2022   1.252       .  A
O2013     Al2020   1.869       .  S
O2014     Al2020   1.963       .  S
O2015      C2022   1.278       .  A
O2016     Al2020   1.777       .  S
O2017      C2018   1.256       .  A
C2019      C2030   1.442       .  S
C2023      O2024   1.258       .  A
O2025      C2040   1.258       .  A
O2025     Al2033   1.868       .  S
C2026      O2036   1.262       .  A
C2026      O2027   1.273       .  A
O2027     Al2029   1.963       .  S
O2028      C2030   1.252       .  A
O2028     Al2029   1.844       .  S
Al2029     O2037   1.870       .  S
Al2029     O2039   1.934       .  S
Al2029     O2038   1.777       .  S
C2030      O2043   1.270       .  A
O2031      C2041   1.253       .  A
O2031     Al2033   1.857       .  S
O2032      C2045   1.256       .  A
O2032     Al2042   1.844       .  S
Al2033     O2046   1.969       .  S
Al2033     O2043   1.940       .  S
Al2033     O2038   1.783       .  S
O2034      C2041   1.273       .  A
O2034     Al2042   1.960       .  S
O2035      C2044   1.278       .  A
O2035     Al2042   1.985       .  S
O2036     Al2042   1.922       .  S
O2037      C2044   1.252       .  A
O2038     Al2042   1.770       .  S
O2039      C2040   1.266       .  A
C2044      C2066   1.482       .  S
C2045      O2046   1.271       .  A
O2047      C2062   1.258       .  A
O2047     Al2055   1.868       .  S
C2048      O2058   1.262       .  A
C2048      O2049   1.273       .  A
O2049     Al2051   1.963       .  S
O2050      C2052   1.252       .  A
O2050     Al2051   1.844       .  S
Al2051     O2059   1.870       .  S
Al2051     O2061   1.934       .  S
Al2051     O2060   1.777       .  S
C2052      O2065   1.270       .  A
C2052      C2107   1.442       .  S
O2053      C2063   1.253       .  A
O2053     Al2055   1.857       .  S
O2054      C2067   1.256       .  A
O2054     Al2064   1.844       .  S
Al2055     O2068   1.969       .  S
Al2055     O2065   1.940       .  S
Al2055     O2060   1.783       .  S
O2056      C2063   1.273       .  A
O2056     Al2064   1.960       .  S
O2057      C2066   1.278       .  A
O2057     Al2064   1.985       .  S
O2058     Al2064   1.922       .  S
O2059      C2066   1.252       .  A
O2060     Al2064   1.770       .  S
O2061      C2062   1.266       .  A
C2067      O2068   1.271       .  A
O2069      C2084   1.271       .  A
O2069     Al2077   1.970       .  S
C2070      O2080   1.273       .  A
C2070      O2071   1.262       .  A
O2071     Al2073   1.921       .  S
O2072      C2074   1.273       .  A
O2072     Al2073   1.959       .  S
Al2073     O2081   1.984       .  S
Al2073     O2083   1.844       .  S
Al2073     O2082   1.770       .  S
C2074      O2087   1.253       .  A
O2075      C2085   1.270       .  A
O2075     Al2077   1.940       .  S
O2076      C2089   1.266       .  A
O2076     Al2086   1.934       .  S
Al2077     O2090   1.868       .  S
Al2077     O2087   1.857       .  S
Al2077     O2082   1.783       .  S
O2078      C2085   1.252       .  A
O2078     Al2086   1.844       .  S
O2079      C2088   1.252       .  A
O2079     Al2086   1.870       .  S
O2080     Al2086   1.964       .  S
O2081      C2088   1.278       .  A
O2082     Al2086   1.777       .  S
O2083      C2084   1.256       .  A
C2088      C2110   1.482       .  S
C2089      O2090   1.258       .  A
O2091      C2106   1.271       .  A
O2091     Al2099   1.969       .  S
C2092      O2102   1.273       .  A
C2092      O2093   1.263       .  A
O2093     Al2095   1.922       .  S
O2094      C2096   1.273       .  A
O2094     Al2095   1.959       .  S
Al2095     O2103   1.985       .  S
Al2095     O2105   1.844       .  S
Al2095     O2104   1.770       .  S
C2096      O2109   1.253       .  A
O2097      C2107   1.270       .  A
O2097     Al2099   1.940       .  S
O2098      C2111   1.266       .  A
O2098     Al2108   1.934       .  S
Al2099     O2112   1.868       .  S
Al2099     O2109   1.857       .  S
Al2099     O2104   1.783       .  S
O2100      C2107   1.252       .  A
O2100     Al2108   1.844       .  S
O2101      C2110   1.252       .  A
O2101     Al2108   1.869       .  S
O2102     Al2108   1.963       .  S
O2103      C2110   1.278       .  A
O2104     Al2108   1.777       .  S
O2105      C2106   1.256       .  A
C2111      O2112   1.259       .  A
O2113      C2128   1.259       .  A
O2113     Al2121   1.868       .  S
C2114      O2124   1.262       .  A
C2114      O2115   1.273       .  A
C2114      C2510   1.505       .  S
O2116      C2118   1.252   1_455  A
O2116     Al2117   1.844   1_455  S
Al2117     O2125   1.870       .  S
Al2117     O2127   1.934       .  S
Al2117     O2126   1.777       .  S
C2118      O2131   1.270       .  A
O2119     Al2121   1.857   1_455  S
O2120      C2133   1.256       .  A
O2120     Al2130   1.844       .  S
Al2121     O2134   1.969       .  S
Al2121     O2131   1.940       .  S
Al2121     O2126   1.783       .  S
O2122      C2129   1.273       .  A
O2123      C2132   1.278       .  A
O2123     Al2130   1.985       .  S
O2125      C2132   1.252       .  A
O2126     Al2130   1.770       .  S
O2127      C2128   1.266       .  A
C2128      C2404   1.459       .  S
C2129      C2595   1.460       .  S
C2132      C2154   1.482       .  S
C2133      O2134   1.271       .  A
C2133      C2375   1.459       .  S
O2135      C2150   1.258       .  A
O2135     Al2143   1.868       .  S
C2136      O2146   1.262       .  A
C2136      O2137   1.273       .  A
C2136      C2532   1.505       .  S
O2137     Al2139   1.963       .  S
O2138      C2140   1.252       .  A
O2138     Al2139   1.844       .  S
Al2139     O2147   1.870       .  S
Al2139     O2149   1.934       .  S
Al2139     O2148   1.777       .  S
C2140      O2153   1.270       .  A
O2141      C2151   1.253       .  A
O2141     Al2143   1.857       .  S
O2142      C2155   1.256       .  A
O2142     Al2152   1.844       .  S
Al2143     O2156   1.969       .  S
Al2143     O2153   1.940       .  S
Al2143     O2148   1.783       .  S
O2144      C2151   1.273       .  A
O2144     Al2152   1.960       .  S
O2145      C2154   1.278       .  A
O2145     Al2152   1.986       .  S
O2146     Al2152   1.922       .  S
O2147      C2154   1.252       .  A
O2148     Al2152   1.770       .  S
O2149      C2150   1.266       .  A
C2150      C2316   1.459       .  S
C2151      C2507   1.460       .  S
C2155      O2156   1.271       .  A
C2155      C2353   1.459       .  S
O2157      C2172   1.271       .  A
O2157     Al2165   1.970       .  S
C2158      O2168   1.273       .  A
C2158      O2159   1.262       .  A
C2158      C2290   1.505       .  S
O2159     Al2161   1.921       .  S
O2160      C2162   1.273       .  A
O2160     Al2161   1.959       .  S
Al2161     O2169   1.984       .  S
Al2161     O2171   1.844       .  S
Al2161     O2170   1.770       .  S
C2162      O2175   1.253   1_554  A
C2162      C2458   1.459   1_554  S
O2163      C2173   1.270   1_556  A
O2163     Al2165   1.940   1_556  S
O2164      C2177   1.266       .  A
O2164     Al2174   1.934       .  S
Al2165     O2178   1.868       .  S
Al2165     O2175   1.857   1_554  S
Al2165     O2170   1.783       .  S
O2166      C2173   1.252       .  A
O2166     Al2174   1.844       .  S
O2167      C2176   1.252       .  A
O2167     Al2174   1.870       .  S
O2168     Al2174   1.964       .  S
O2169      C2176   1.278       .  A
O2170     Al2174   1.777       .  S
O2171      C2172   1.256       .  A
C2172      C2480   1.459       .  S
C2176      C2198   1.481       .  S
C2177      O2178   1.258       .  A
C2177      C2635   1.460   1_554  S
O2179      C2194   1.271       .  A
O2179     Al2187   1.969       .  S
C2180      O2190   1.273       .  A
C2180      O2181   1.262       .  A
C2180      C2312   1.505       .  S
O2181     Al2183   1.922       .  S
O2182      C2184   1.273       .  A
O2182     Al2183   1.959       .  S
Al2183     O2191   1.985       .  S
Al2183     O2193   1.844       .  S
Al2183     O2192   1.770       .  S
C2184      O2197   1.253       .  A
C2184      C2348   1.460       .  S
O2185      C2195   1.270       .  A
O2185     Al2187   1.940       .  S
O2186      C2199   1.266       .  A
O2186     Al2196   1.934       .  S
Al2187     O2200   1.868       .  S
Al2187     O2197   1.857       .  S
Al2187     O2192   1.783       .  S
O2188      C2195   1.252       .  A
O2188     Al2196   1.844       .  S
O2189      C2198   1.252       .  A
O2189     Al2196   1.869       .  S
O2190     Al2196   1.963       .  S
O2191      C2198   1.278       .  A
O2192     Al2196   1.777       .  S
O2193      C2194   1.256       .  A
C2194      C2502   1.459       .  S
C2199      O2200   1.258       .  A
C2199      C2547   1.459       .  S
O2201      C2216   1.258       .  A
O2201     Al2209   1.868       .  S
C2202      O2212   1.262       .  A
C2202      O2203   1.273       .  A
C2202      C2598   1.505       .  S
O2203     Al2205   1.963       .  S
O2204      C2206   1.252       .  A
O2204     Al2205   1.844       .  S
Al2205     O2213   1.870       .  S
Al2205     O2215   1.934       .  S
Al2205     O2214   1.777       .  S
C2206      O2219   1.270       .  A
O2207      C2217   1.253       .  A
O2207     Al2209   1.857       .  S
O2208      C2221   1.256       .  A
O2208     Al2218   1.844       .  S
Al2209     O2222   1.969       .  S
Al2209     O2219   1.940       .  S
Al2209     O2214   1.783       .  S
O2210      C2217   1.273       .  A
O2210     Al2218   1.959       .  S
O2211      C2220   1.278       .  A
O2211     Al2218   1.985       .  S
O2212     Al2218   1.922       .  S
O2213      C2220   1.252       .  A
O2214     Al2218   1.770       .  S
O2215      C2216   1.266       .  A
C2216      C2382   1.460       .  S
C2217      C2573   1.459       .  S
C2220      C2242   1.482       .  S
C2221      O2222   1.271       .  A
C2221      C2441   1.459       .  S
O2223      C2238   1.258       .  A
O2223     Al2231   1.868       .  S
C2224      O2234   1.262       .  A
C2224      O2225   1.273       .  A
C2224      C2620   1.505       .  S
O2225     Al2227   1.963       .  S
O2226      C2228   1.252       .  A
O2226     Al2227   1.844       .  S
Al2227     O2235   1.870       .  S
Al2227     O2237   1.934       .  S
Al2227     O2236   1.777       .  S
C2228      O2241   1.270   1_556  A
O2229      C2239   1.253   1_554  A
O2229     Al2231   1.857   1_554  S
O2230      C2243   1.256       .  A
O2230     Al2240   1.844       .  S
Al2231     O2244   1.969       .  S
Al2231     O2241   1.940   1_556  S
Al2231     O2236   1.783       .  S
O2232      C2239   1.273       .  A
O2232     Al2240   1.959       .  S
O2233      C2242   1.278       .  A
O2233     Al2240   1.985       .  S
O2234     Al2240   1.922       .  S
O2235      C2242   1.252       .  A
O2236     Al2240   1.770       .  S
O2237      C2238   1.266       .  A
C2238      C2294   1.459   1_556  S
C2239      C2485   1.459   1_556  S
C2243      O2244   1.271       .  A
C2243      C2463   1.459       .  S
O2245      C2260   1.271       .  A
O2245     Al2253   1.970       .  S
C2246      O2256   1.273       .  A
C2246      O2247   1.262       .  A
C2246      C2378   1.505       .  S
O2247     Al2249   1.921       .  S
O2248      C2250   1.273       .  A
O2248     Al2249   1.959       .  S
Al2249     O2257   1.985       .  S
Al2249     O2259   1.844       .  S
Al2249     O2258   1.770       .  S
C2250      O2263   1.252       .  A
C2250      C2436   1.459       .  S
O2251      C2261   1.270       .  A
O2251     Al2253   1.940       .  S
O2252      C2265   1.266       .  A
O2252     Al2262   1.934       .  S
Al2253     O2266   1.868       .  S
Al2253     O2263   1.857       .  S
Al2253     O2258   1.783       .  S
O2254      C2261   1.252       .  A
O2254     Al2262   1.844       .  S
O2255      C2264   1.252       .  A
O2255     Al2262   1.870       .  S
O2256     Al2262   1.964       .  S
O2257      C2264   1.278       .  A
O2258     Al2262   1.777       .  S
O2259      C2260   1.256       .  A
C2260      C2568   1.459       .  S
C2264      C2286   1.482       .  S
C2265      O2266   1.258       .  A
C2265      C2613   1.460       .  S
O2267      C2282   1.271       .  A
O2267     Al2275   1.969       .  S
C2268      O2278   1.273       .  A
C2268      O2269   1.263       .  A
C2268      C2400   1.505       .  S
O2270      C2272   1.273       .  A
Al2271     O2279   1.985       .  S
Al2271     O2281   1.844       .  S
Al2271     O2280   1.770       .  S
C2272      C2370   1.459       .  S
O2273      C2283   1.270       .  A
O2273     Al2275   1.940       .  S
O2274      C2287   1.266       .  A
O2274     Al2284   1.934       .  S
Al2275     O2288   1.868       .  S
Al2275     O2285   1.857       .  S
Al2275     O2280   1.783       .  S
O2276      C2283   1.252       .  A
O2276     Al2284   1.844       .  S
O2277      C2286   1.252       .  A
O2277     Al2284   1.869       .  S
O2279      C2286   1.278       .  A
O2280     Al2284   1.777       .  S
O2281      C2282   1.256       .  A
C2282      C2590   1.459       .  S
C2287      O2288   1.258       .  A
C2287      C2525   1.459       .  S
O2289      C2304   1.271       .  A
C2290      O2300   1.273       .  A
C2290      O2291   1.262       .  A
O2292      C2294   1.273       .  A
O2292     Al2293   1.959       .  S
Al2293     O2303   1.844       .  S
C2294      O2307   1.253   1_554  A
O2295      C2305   1.270   1_556  A
O2295     Al2297   1.940   1_556  S
O2296      C2309   1.266       .  A
O2296     Al2306   1.934       .  S
Al2297     O2310   1.868       .  S
Al2297     O2302   1.783       .  S
O2298      C2305   1.252       .  A
O2298     Al2306   1.844       .  S
O2299      C2308   1.252       .  A
O2299     Al2306   1.869       .  S
O2300     Al2306   1.963       .  S
O2301      C2308   1.278       .  A
O2302     Al2306   1.777       .  S
O2303      C2304   1.256       .  A
C2304      C2700   1.459       .  S
C2305      C2448   1.442   1_554  S
C2308      C2330   1.482       .  S
C2309      O2310   1.259       .  A
C2309      C2657   1.459   1_554  S
O2311      C2326   1.271       .  A
C2312      O2322   1.273       .  A
C2312      O2313   1.262       .  A
O2314      C2316   1.273       .  A
Al2315     O2325   1.844       .  S
O2317      C2327   1.270       .  A
O2317     Al2319   1.940       .  S
O2318      C2331   1.266       .  A
O2318     Al2328   1.934       .  S
Al2319     O2332   1.868       .  S
Al2319     O2324   1.783       .  S
O2320      C2327   1.252       .  A
O2320     Al2328   1.844       .  S
O2321      C2330   1.252       .  A
O2321     Al2328   1.870       .  S
O2323      C2330   1.278       .  A
O2324     Al2328   1.777       .  S
O2325      C2326   1.256       .  A
C2326      C2722   1.459       .  S
C2331      O2332   1.258       .  A
C2331      C2745   1.460       .  S
O2333      C2348   1.258       .  A
O2333     Al2341   1.868       .  S
C2334      O2344   1.262       .  A
C2334      O2335   1.273       .  A
C2334      C2730   1.505       .  S
O2336      C2338   1.252   1_455  A
O2336     Al2337   1.844   1_455  S
Al2337     O2345   1.870       .  S
Al2337     O2347   1.934       .  S
Al2337     O2346   1.777       .  S
C2338      O2351   1.270       .  A
O2339     Al2341   1.857   1_455  S
O2340      C2353   1.256       .  A
O2340     Al2350   1.844       .  S
Al2341     O2354   1.969       .  S
Al2341     O2351   1.940       .  S
Al2341     O2346   1.783       .  S
O2342      C2349   1.273       .  A
O2343      C2352   1.278       .  A
O2343     Al2350   1.985       .  S
O2345      C2352   1.252       .  A
O2346     Al2350   1.770       .  S
O2347      C2348   1.266       .  A
C2349      C2727   1.459       .  S
C2352      C2374   1.482       .  S
C2353      O2354   1.271       .  A
O2355      C2370   1.259       .  A
O2355     Al2363   1.868       .  S
C2356      O2366   1.262       .  A
C2356      O2357   1.273       .  A
C2356      C2752   1.505       .  S
O2357     Al2359   1.963       .  S
O2358      C2360   1.252       .  A
O2358     Al2359   1.844       .  S
Al2359     O2367   1.870       .  S
Al2359     O2369   1.934       .  S
Al2359     O2368   1.777       .  S
C2360      O2373   1.270       .  A
C2360      C2415   1.442       .  S
O2361      C2371   1.253       .  A
O2361     Al2363   1.857       .  S
O2362      C2375   1.256       .  A
O2362     Al2372   1.844       .  S
Al2363     O2376   1.969       .  S
Al2363     O2373   1.940       .  S
Al2363     O2368   1.783       .  S
O2364      C2371   1.273       .  A
O2364     Al2372   1.959       .  S
O2365      C2374   1.278       .  A
O2365     Al2372   1.985       .  S
O2366     Al2372   1.922       .  S
O2367      C2374   1.252       .  A
O2368     Al2372   1.770       .  S
O2369      C2370   1.266       .  A
C2371      C2815   1.459       .  S
C2375      O2376   1.271       .  A
O2377      C2392   1.271       .  A
C2378      O2388   1.273       .  A
C2378      O2379   1.263       .  A
O2380      C2382   1.273       .  A
O2380     Al2381   1.959       .  S
Al2381     O2391   1.844       .  S
C2382      O2395   1.253       .  A
O2383      C2393   1.270       .  A
O2383     Al2385   1.940       .  S
O2384      C2397   1.266       .  A
O2384     Al2394   1.934       .  S
Al2385     O2398   1.868       .  S
Al2385     O2390   1.783       .  S
O2386      C2393   1.252       .  A
O2386     Al2394   1.844       .  S
O2387      C2396   1.252       .  A
O2387     Al2394   1.869       .  S
O2388     Al2394   1.963       .  S
O2389      C2396   1.278       .  A
O2390     Al2394   1.777       .  S
O2391      C2392   1.256       .  A
C2392      C2788   1.459       .  S
C2393      C2426   1.442       .  S
C2396      C2418   1.481       .  S
C2397      O2398   1.259       .  A
C2397      C2679   1.459       .  S
O2399      C2414   1.271       .  A
C2400      O2410   1.273       .  A
C2400      O2401   1.262       .  A
O2402      C2404   1.273       .  A
O2402     Al2403   1.959       .  S
Al2403     O2413   1.844       .  S
C2404      O2417   1.253       .  A
O2405      C2415   1.270       .  A
O2405     Al2407   1.940       .  S
O2406      C2419   1.266       .  A
O2406     Al2416   1.935       .  S
Al2407     O2420   1.868       .  S
Al2407     O2412   1.783       .  S
O2408      C2415   1.252       .  A
O2408     Al2416   1.844       .  S
O2409      C2418   1.252       .  A
O2409     Al2416   1.870       .  S
O2410     Al2416   1.964       .  S
O2411      C2418   1.278       .  A
O2412     Al2416   1.777       .  S
O2413      C2414   1.256       .  A
C2414      C2810   1.459       .  S
C2419      O2420   1.259       .  A
C2419      C2767   1.460       .  S
O2421      C2436   1.259       .  A
O2421     Al2429   1.868       .  S
C2422      O2432   1.262       .  A
C2422      O2423   1.273       .  A
C2422      C2664   1.505       .  S
O2423     Al2425   1.963       .  S
O2424      C2426   1.252       .  A
O2424     Al2425   1.844       .  S
Al2425     O2433   1.870       .  S
Al2425     O2435   1.934       .  S
Al2425     O2434   1.777       .  S
C2426      O2439   1.270       .  A
O2427      C2437   1.253       .  A
O2427     Al2429   1.857       .  S
O2428      C2441   1.256       .  A
O2428     Al2438   1.844       .  S
Al2429     O2442   1.969       .  S
Al2429     O2439   1.940       .  S
Al2429     O2434   1.783       .  S
O2430      C2437   1.273       .  A
O2430     Al2438   1.960       .  S
O2431      C2440   1.278       .  A
O2431     Al2438   1.986       .  S
O2432     Al2438   1.922       .  S
O2433      C2440   1.252       .  A
O2434     Al2438   1.770       .  S
O2435      C2436   1.266       .  A
C2437      C2793   1.460       .  S
C2440      C2462   1.482       .  S
C2441      O2442   1.271       .  A
O2443      C2458   1.259       .  A
O2443     Al2451   1.868       .  S
C2444      O2454   1.262       .  A
C2444      O2445   1.273       .  A
C2444      C2642   1.505       .  S
O2445     Al2447   1.963       .  S
O2446      C2448   1.252       .  A
O2446     Al2447   1.844       .  S
Al2447     O2455   1.870       .  S
Al2447     O2457   1.934       .  S
Al2447     O2456   1.777       .  S
C2448      O2461   1.270   1_556  A
O2449      C2459   1.253   1_554  A
O2449     Al2451   1.857   1_554  S
O2450      C2463   1.256       .  A
O2450     Al2460   1.844       .  S
Al2451     O2464   1.969       .  S
Al2451     O2461   1.940   1_556  S
Al2451     O2456   1.783       .  S
O2452      C2459   1.273       .  A
O2452     Al2460   1.960       .  S
O2453      C2462   1.278       .  A
O2453     Al2460   1.985       .  S
O2454     Al2460   1.922       .  S
O2455      C2462   1.252       .  A
O2456     Al2460   1.770       .  S
O2457      C2458   1.266       .  A
C2459      C2705   1.460   1_556  S
C2463      O2464   1.271       .  A
O2465      C2480   1.271       .  A
O2465     Al2473   1.969       .  S
C2466      O2476   1.273       .  A
C2466      O2467   1.262       .  A
C2466      C2686   1.505       .  S
O2467     Al2469   1.922       .  S
O2468      C2470   1.273       .  A
O2468     Al2469   1.959       .  S
Al2469     O2477   1.985       .  S
Al2469     O2479   1.844       .  S
Al2469     O2478   1.770       .  S
C2470      O2483   1.253   1_554  A
C2470      C2656   1.459   1_554  S
O2471      C2481   1.270   1_556  A
O2471     Al2473   1.940   1_556  S
O2472      C2485   1.266       .  A
O2472     Al2482   1.934       .  S
Al2473     O2486   1.868       .  S
Al2473     O2483   1.857   1_554  S
Al2473     O2478   1.783       .  S
O2474      C2481   1.252       .  A
O2474     Al2482   1.844       .  S
O2475      C2484   1.252       .  A
O2475     Al2482   1.869       .  S
O2476     Al2482   1.963       .  S
O2477      C2484   1.278       .  A
O2478     Al2482   1.777       .  S
O2479      C2480   1.256       .  A
C2481      C2624   1.442   1_554  S
C2484      C2506   1.482       .  S
C2485      O2486   1.259       .  A
O2487      C2502   1.271       .  A
O2487     Al2495   1.970       .  S
C2488      O2498   1.273       .  A
C2488      O2489   1.263       .  A
C2488      C2708   1.505       .  S
O2489     Al2491   1.921       .  S
O2490      C2492   1.273       .  A
O2490     Al2491   1.959       .  S
Al2491     O2499   1.985       .  S
Al2491     O2501   1.844       .  S
Al2491     O2500   1.770       .  S
C2492      O2505   1.253       .  A
C2492      C2744   1.459       .  S
O2493      C2503   1.270       .  A
O2493     Al2495   1.940       .  S
O2494      C2507   1.266       .  A
O2494     Al2504   1.934       .  S
Al2495     O2508   1.868       .  S
Al2495     O2505   1.857       .  S
Al2495     O2500   1.783       .  S
O2496      C2503   1.252       .  A
O2496     Al2504   1.844       .  S
O2497      C2506   1.252       .  A
O2497     Al2504   1.870       .  S
O2498     Al2504   1.964       .  S
O2499      C2506   1.278       .  A
O2500     Al2504   1.777       .  S
O2501      C2502   1.256       .  A
C2503      C2536   1.442       .  S
C2507      O2508   1.259       .  A
O2509      C2524   1.259       .  A
O2509     Al2517   1.868       .  S
C2510      O2520   1.263       .  A
C2510      O2511   1.273       .  A
O2511     Al2513   1.963       .  S
O2512      C2514   1.252       .  A
O2512     Al2513   1.844       .  S
Al2513     O2521   1.870       .  S
Al2513     O2523   1.934       .  S
Al2513     O2522   1.777       .  S
C2514      O2527   1.270       .  A
C2514      C2591   1.442       .  S
O2515     Al2517   1.857       .  S
O2516      C2529   1.256       .  A
Al2517     O2527   1.940       .  S
Al2517     O2522   1.783       .  S
O2518      C2525   1.273       .  A
O2519      C2528   1.278       .  A
O2519     Al2526   1.985       .  S
O2520     Al2526   1.922       .  S
O2521      C2528   1.252       .  A
O2522     Al2526   1.770       .  S
O2523      C2524   1.266       .  A
C2524      C2800   1.459       .  S
C2528      C2550   1.482       .  S
C2529      O2530   1.271       .  A
C2529      C2771   1.459       .  S
O2531      C2546   1.258       .  A
O2531     Al2539   1.868       .  S
C2532      O2542   1.262       .  A
C2532      O2533   1.273       .  A
O2533     Al2535   1.963       .  S
O2534      C2536   1.252       .  A
O2534     Al2535   1.844       .  S
Al2535     O2543   1.870       .  S
Al2535     O2545   1.934       .  S
Al2535     O2544   1.777       .  S
C2536      O2549   1.270       .  A
O2537     Al2539   1.857       .  S
O2538      C2551   1.256       .  A
Al2539     O2549   1.940       .  S
Al2539     O2544   1.783       .  S
O2540      C2547   1.273       .  A
O2541      C2550   1.278       .  A
O2541     Al2548   1.985       .  S
O2542     Al2548   1.922       .  S
O2543      C2550   1.252       .  A
O2544     Al2548   1.770       .  S
O2545      C2546   1.266       .  A
C2546      C2712   1.459       .  S
C2551      O2552   1.271       .  A
C2551      C2749   1.459       .  S
O2553      C2568   1.271       .  A
O2553     Al2561   1.969       .  S
C2554      O2564   1.273       .  A
C2554      O2555   1.262       .  A
C2554      C2774   1.505       .  S
O2556      C2558   1.273       .  A
Al2557     O2565   1.985       .  S
Al2557     O2567   1.844       .  S
Al2557     O2566   1.770       .  S
C2558      C2678   1.459       .  S
O2559      C2569   1.270       .  A
O2559     Al2561   1.940       .  S
O2560      C2573   1.266       .  A
O2560     Al2570   1.934       .  S
Al2561     O2574   1.868       .  S
Al2561     O2571   1.857       .  S
Al2561     O2566   1.783       .  S
O2562      C2569   1.252       .  A
O2562     Al2570   1.844       .  S
O2563      C2572   1.252       .  A
O2563     Al2570   1.869       .  S
O2565      C2572   1.278       .  A
O2566     Al2570   1.777       .  S
O2567      C2568   1.256       .  A
C2572      C2594   1.481       .  S
C2573      O2574   1.258       .  A
O2575      C2590   1.271       .  A
O2575     Al2583   1.970       .  S
C2576      O2586   1.273       .  A
C2576      O2577   1.262       .  A
C2576      C2796   1.505       .  S
O2577     Al2579   1.921       .  S
O2578      C2580   1.273       .  A
O2578     Al2579   1.959       .  S
Al2579     O2587   1.984       .  S
Al2579     O2589   1.844       .  S
Al2579     O2588   1.770       .  S
C2580      O2593   1.253       .  A
C2580      C2766   1.459       .  S
O2581      C2591   1.270       .  A
O2581     Al2583   1.940       .  S
O2582      C2595   1.266       .  A
O2582     Al2592   1.934       .  S
Al2583     O2596   1.868       .  S
Al2583     O2593   1.857       .  S
Al2583     O2588   1.783       .  S
O2584      C2591   1.252       .  A
O2584     Al2592   1.844       .  S
O2585      C2594   1.252       .  A
O2585     Al2592   1.870       .  S
O2586     Al2592   1.964       .  S
O2587      C2594   1.278       .  A
O2588     Al2592   1.777       .  S
O2589      C2590   1.256       .  A
C2595      O2596   1.258       .  A
O2597      C2612   1.258       .  A
O2597     Al2605   1.868       .  S
C2598      O2608   1.262       .  A
C2598      O2599   1.273       .  A
O2600      C2602   1.252   1_455  A
O2600     Al2601   1.844   1_455  S
Al2601     O2609   1.870       .  S
Al2601     O2611   1.934       .  S
Al2601     O2610   1.777       .  S
C2602      O2615   1.270       .  A
O2603     Al2605   1.857   1_455  S
O2604      C2617   1.256       .  A
Al2605     O2615   1.940       .  S
Al2605     O2610   1.783       .  S
O2606      C2613   1.273       .  A
O2607      C2616   1.278       .  A
O2607     Al2614   1.986       .  S
O2609      C2616   1.252       .  A
O2610     Al2614   1.770       .  S
O2611      C2612   1.266       .  A
C2612      C2778   1.459       .  S
C2616      C2638   1.482       .  S
C2617      O2618   1.271       .  A
C2617      C2683   1.459       .  S
O2619      C2634   1.259       .  A
O2619     Al2627   1.868       .  S
C2620      O2630   1.262       .  A
C2620      O2621   1.273       .  A
O2621     Al2623   1.963       .  S
O2622      C2624   1.252       .  A
O2622     Al2623   1.844       .  S
Al2623     O2631   1.870       .  S
Al2623     O2633   1.934       .  S
Al2623     O2632   1.777       .  S
C2624      O2637   1.270   1_556  A
O2625     Al2627   1.857   1_554  S
O2626      C2639   1.256       .  A
Al2627     O2637   1.940   1_556  S
Al2627     O2632   1.783       .  S
O2628      C2635   1.273       .  A
O2629      C2638   1.278       .  A
O2629     Al2636   1.985       .  S
O2630     Al2636   1.922       .  S
O2631      C2638   1.252       .  A
O2632     Al2636   1.770       .  S
O2633      C2634   1.266       .  A
C2634      C2690   1.459   1_556  S
C2639      O2640   1.271       .  A
C2639      C2661   1.459       .  S
O2641      C2656   1.259       .  A
O2641     Al2649   1.868       .  S
C2642      O2652   1.262       .  A
C2642      O2643   1.273       .  A
O2644      C2646   1.252   1_455  A
O2644     Al2645   1.844   1_455  S
Al2645     O2653   1.870       .  S
Al2645     O2655   1.934       .  S
Al2645     O2654   1.777       .  S
C2646      O2659   1.270   1_556  A
O2647     Al2649   1.857   1_454  S
O2648      C2661   1.256       .  A
O2648     Al2658   1.844       .  S
Al2649     O2662   1.969       .  S
Al2649     O2659   1.940   1_556  S
Al2649     O2654   1.783       .  S
O2650      C2657   1.273       .  A
O2651      C2660   1.278       .  A
O2651     Al2658   1.985       .  S
O2653      C2660   1.252       .  A
O2654     Al2658   1.770       .  S
O2655      C2656   1.266       .  A
C2660      C2682   1.482       .  S
C2661      O2662   1.271       .  A
O2663      C2678   1.258       .  A
O2663     Al2671   1.868       .  S
C2664      O2674   1.263       .  A
C2664      O2665   1.273       .  A
O2665     Al2667   1.963       .  S
O2666      C2668   1.252       .  A
O2666     Al2667   1.844       .  S
Al2667     O2675   1.870       .  S
Al2667     O2677   1.934       .  S
Al2667     O2676   1.777       .  S
C2668      O2681   1.270       .  A
C2668      C2789   1.442       .  S
O2669      C2679   1.253       .  A
O2669     Al2671   1.857       .  S
O2670      C2683   1.256       .  A
O2670     Al2680   1.844       .  S
Al2671     O2684   1.969       .  S
Al2671     O2681   1.940       .  S
Al2671     O2676   1.783       .  S
O2672      C2679   1.273       .  A
O2672     Al2680   1.959       .  S
O2673      C2682   1.278       .  A
O2673     Al2680   1.985       .  S
O2674     Al2680   1.922       .  S
O2675      C2682   1.252       .  A
O2676     Al2680   1.770       .  S
O2677      C2678   1.266       .  A
C2683      O2684   1.271       .  A
O2685      C2700   1.271       .  A
O2685     Al2693   1.970       .  S
C2686      O2696   1.273       .  A
C2686      O2687   1.262       .  A
O2688      C2690   1.273       .  A
Al2689     O2697   1.984       .  S
Al2689     O2699   1.844       .  S
Al2689     O2698   1.770       .  S
O2691      C2701   1.270   1_556  A
O2691     Al2693   1.940   1_556  S
O2692      C2705   1.266       .  A
O2692     Al2702   1.934       .  S
Al2693     O2706   1.868       .  S
Al2693     O2703   1.857   1_554  S
Al2693     O2698   1.783       .  S
O2694      C2701   1.252       .  A
O2694     Al2702   1.844       .  S
O2695      C2704   1.252       .  A
O2695     Al2702   1.870       .  S
O2697      C2704   1.278       .  A
O2698     Al2702   1.777       .  S
O2699      C2700   1.256       .  A
C2704      C2726   1.482       .  S
C2705      O2706   1.258       .  A
O2707      C2722   1.271       .  A
O2707     Al2715   1.969       .  S
C2708      O2718   1.273       .  A
C2708      O2709   1.262       .  A
O2709     Al2711   1.922       .  S
O2710      C2712   1.273       .  A
O2710     Al2711   1.959       .  S
Al2711     O2719   1.985       .  S
Al2711     O2721   1.844       .  S
Al2711     O2720   1.770       .  S
C2712      O2725   1.253       .  A
O2713      C2723   1.270       .  A
O2713     Al2715   1.940       .  S
O2714      C2727   1.266       .  A
O2714     Al2724   1.934       .  S
Al2715     O2728   1.868       .  S
Al2715     O2725   1.857       .  S
Al2715     O2720   1.783       .  S
O2716      C2723   1.252       .  A
O2716     Al2724   1.844       .  S
O2717      C2726   1.252       .  A
O2717     Al2724   1.869       .  S
O2718     Al2724   1.963       .  S
O2719      C2726   1.278       .  A
O2720     Al2724   1.777       .  S
O2721      C2722   1.256       .  A
C2723      C2734   1.442       .  S
C2727      O2728   1.258       .  A
O2729      C2744   1.259       .  A
O2729     Al2737   1.868       .  S
C2730      O2740   1.262       .  A
C2730      O2731   1.273       .  A
O2731     Al2733   1.963       .  S
O2732      C2734   1.252       .  A
O2732     Al2733   1.844       .  S
Al2733     O2741   1.870       .  S
Al2733     O2743   1.934       .  S
Al2733     O2742   1.777       .  S
C2734      O2747   1.270       .  A
O2735      C2745   1.253       .  A
O2735     Al2737   1.857       .  S
O2736      C2749   1.256       .  A
O2736     Al2746   1.844       .  S
Al2737     O2750   1.969       .  S
Al2737     O2747   1.940       .  S
Al2737     O2742   1.783       .  S
O2738      C2745   1.273       .  A
O2738     Al2746   1.960       .  S
O2739      C2748   1.278       .  A
O2739     Al2746   1.985       .  S
O2740     Al2746   1.922       .  S
O2741      C2748   1.252       .  A
O2742     Al2746   1.770       .  S
O2743      C2744   1.266       .  A
C2748      C2770   1.482       .  S
C2749      O2750   1.271       .  A
O2751      C2766   1.258       .  A
O2751     Al2759   1.868       .  S
C2752      O2762   1.262       .  A
C2752      O2753   1.273       .  A
O2753     Al2755   1.963       .  S
O2754      C2756   1.252       .  A
O2754     Al2755   1.844       .  S
Al2755     O2763   1.870       .  S
Al2755     O2765   1.934       .  S
Al2755     O2764   1.777       .  S
C2756      O2769   1.270       .  A
C2756      C2811   1.442       .  S
O2757      C2767   1.253       .  A
O2757     Al2759   1.857       .  S
O2758      C2771   1.256       .  A
O2758     Al2768   1.844       .  S
Al2759     O2772   1.969       .  S
Al2759     O2769   1.940       .  S
Al2759     O2764   1.783       .  S
O2760      C2767   1.273       .  A
O2760     Al2768   1.960       .  S
O2761      C2770   1.278       .  A
O2761     Al2768   1.985       .  S
O2762     Al2768   1.922       .  S
O2763      C2770   1.252       .  A
O2764     Al2768   1.770       .  S
O2765      C2766   1.266       .  A
C2771      O2772   1.271       .  A
O2773      C2788   1.271       .  A
O2773     Al2781   1.970       .  S
C2774      O2784   1.273       .  A
C2774      O2775   1.262       .  A
O2775     Al2777   1.921       .  S
O2776      C2778   1.273       .  A
O2776     Al2777   1.959       .  S
Al2777     O2785   1.984       .  S
Al2777     O2787   1.844       .  S
Al2777     O2786   1.770       .  S
C2778      O2791   1.253       .  A
O2779      C2789   1.270       .  A
O2779     Al2781   1.940       .  S
O2780      C2793   1.266       .  A
O2780     Al2790   1.934       .  S
Al2781     O2794   1.868       .  S
Al2781     O2791   1.857       .  S
Al2781     O2786   1.783       .  S
O2782      C2789   1.252       .  A
O2782     Al2790   1.844       .  S
O2783      C2792   1.252       .  A
O2783     Al2790   1.870       .  S
O2784     Al2790   1.964       .  S
O2785      C2792   1.278       .  A
O2786     Al2790   1.777       .  S
O2787      C2788   1.256       .  A
C2792      C2814   1.482       .  S
C2793      O2794   1.258       .  A
O2795      C2810   1.271       .  A
O2795     Al2803   1.969       .  S
C2796      O2806   1.273       .  A
C2796      O2797   1.262       .  A
O2797     Al2799   1.922       .  S
O2798      C2800   1.273       .  A
O2798     Al2799   1.959       .  S
Al2799     O2807   1.985       .  S
Al2799     O2809   1.844       .  S
Al2799     O2808   1.770       .  S
C2800      O2813   1.253       .  A
O2801      C2811   1.270       .  A
O2801     Al2803   1.940       .  S
O2802      C2815   1.266       .  A
O2802     Al2812   1.934       .  S
Al2803     O2816   1.868       .  S
Al2803     O2813   1.857       .  S
Al2803     O2808   1.783       .  S
O2804      C2811   1.252       .  A
O2804     Al2812   1.844       .  S
O2805      C2814   1.252       .  A
O2805     Al2812   1.869       .  S
O2806     Al2812   1.963       .  S
O2807      C2814   1.278       .  A
O2808     Al2812   1.777       .  S
O2809      C2810   1.256       .  A
C2815      O2816   1.259       .  A
