geometry optimzed in LAMMPS
_audit_creation_date              2020-12-01 
_audit_creation_method            'lammps2cif' 
_symmetry_space_group_name_H-M    'P1' 
_symmetry_Int_Tables_number       1 
_symmetry_cell_setting            triclinic 
loop_ 
_symmetry_equiv_pos_as_xyz 
  x,y,z 
_cell_length_a                    34.95488215 
_cell_length_b                    50.576961030733024 
_cell_length_c                    33.15688818135082 
_cell_angle_alpha                 89.26290736072994 
_cell_angle_beta                  89.9656573375933 
_cell_angle_gamma                 90.04322178843933 
loop_ 
_atom_site_label 
_atom_site_type_symbol 
_atom_site_fract_x 
_atom_site_fract_y 
_atom_site_fract_z 
_atom_site_charge 
O1          O  0.38073273  0.43546312  0.58860029    -0.81100
O2          O  0.34872352  0.55210559  0.61448130    -0.65800
O3          O  0.33361895  0.47992318  0.58682022    -1.12400
C4          C  0.37653863  0.50092765  0.45924470     1.05800
O5          O  0.33550807  0.56904575  0.55384544    -0.79000
O6          O  0.29728928  0.52865341  0.51742439    -0.66600
Ni7        Ni  0.34442417  0.45218615  0.62383604     1.34900
C8          C  0.28854782  0.50563784  0.50554601     0.84500
O9          O  0.31475279  0.51114786  0.65262790    -0.79600
O10         O  0.30886142  0.46706276  0.66127996    -0.89800
C11         C  0.34155428  0.57179658  0.59137268     0.84100
O12         O  0.38551681  0.46788148  0.65301711    -0.68000
O13         O  0.35797625  0.52196205  0.46667771    -0.87300
C14         C  0.40147331  0.49043804  0.65263237     0.84900
C15         C  0.30217162  0.49082798  0.67192532     1.06500
H16         H  0.39441665  0.52167543  0.55475001     0.38300
O17         O  0.36751306  0.51812896  0.55086387    -1.10000
O18         O  0.31194164  0.48618482  0.50828673    -0.66600
Ni19       Ni  0.36069495  0.48161206  0.53706364     1.26300
O20         O  0.39009156  0.50937716  0.62980379    -0.66900
O21         O  0.38735906  0.48498793  0.48689403    -0.79200
C22         C  0.37480385  0.42871488  0.55227134     0.84300
O23         O  0.35697774  0.44407470  0.52804609    -0.66300
Ni24       Ni  0.34724238  0.54331381  0.51322358     1.27400
Ni25       Ni  0.34169092  0.51547315  0.60216643     1.26100
H26         H  0.30666691  0.47826022  0.58094969     0.38800
O27         O  0.38043010  0.81309278  0.67130548    -0.81100
O28         O  0.35334347  0.69706414  0.63987156    -0.65800
O29         O  0.33376069  0.76854599  0.66831730    -1.12400
C30         C  0.37021620  0.74437813  0.79804253     1.05800
O31         O  0.32755306  0.68094333  0.69608544    -0.79000
O32         O  0.29269375  0.71918357  0.73915041    -0.66600
Ni33       Ni  0.34654413  0.79683854  0.63295770     1.34900
C34         C  0.28396810  0.74246384  0.74970544     0.84500
O35         O  0.32142298  0.73817783  0.59994504    -0.79600
O36         O  0.31337849  0.78223321  0.59291997    -0.89800
C37         C  0.34059832  0.67768098  0.66073567     0.84100
O38         O  0.38927311  0.78182864  0.60541589    -0.68000
O39         O  0.35536500  0.72254000  0.78753810    -0.87300
C40         C  0.40617680  0.75961483  0.60692601     0.84900
C41         C  0.30875719  0.75851666  0.58088394     1.06500
H42         H  0.39223737  0.72676816  0.70404843     0.38300
O43         O  0.36507017  0.73013263  0.70563369    -1.10000
O44         O  0.30708398  0.76191592  0.74570329    -0.66600
Ni45       Ni  0.35715504  0.76641189  0.72020327     1.26300
O46         O  0.39432418  0.74061634  0.62942922    -0.66900
O47         O  0.37962295  0.76243620  0.77270172    -0.79200
C48         C  0.37043522  0.81981987  0.70663625     0.84300
O49         O  0.35238089  0.80376119  0.72961099    -0.66300
Ni50       Ni  0.34240604  0.70374701  0.73954806     1.27400
Ni51       Ni  0.34404178  0.73340672  0.65239756     1.26100
H52         H  0.30642007  0.76973604  0.67215669     0.38800
O53         O  0.40983254  0.43358622  0.16296257    -0.81100
O54         O  0.43695982  0.55065033  0.13624395    -0.65800
O55         O  0.45463557  0.47885912  0.16524487    -1.12400
C56         C  0.40342277  0.49669569  0.29032644     1.05800
O57         O  0.44114390  0.56776226  0.19794028    -0.79000
O58         O  0.48292679  0.52928124  0.23702500    -0.66600
Ni59       Ni  0.44594266  0.45137398  0.12824948     1.34900
C60         C  0.49406122  0.50643471  0.24843957     0.84500
O61         O  0.47394779  0.51139227  0.09987152    -0.79600
O62         O  0.48125205  0.46750859  0.09117585    -0.89800
C63         C  0.43953810  0.57016814  0.15979409     0.84100
O64         O  0.40450379  0.46623633  0.09829310    -0.68000
O65         O  0.42076344  0.51842258  0.28402671    -0.87300
C66         C  0.38780786  0.48847851  0.09732817     0.84900
C67         C  0.48714564  0.49155388  0.08064005     1.06500
H68         H  0.38939940  0.51746115  0.19359180     0.38300
O69         O  0.41634336  0.51525476  0.19918673    -1.10000
O70         O  0.47299746  0.48579488  0.24447466    -0.66600
Ni71       Ni  0.42579208  0.47900835  0.21386260     1.26300
O72         O  0.39823366  0.50758620  0.11951759    -0.66900
O73         O  0.39653206  0.48035017  0.26255593    -0.79200
C74         C  0.41643857  0.42620426  0.19907612     0.84300
O75         O  0.43274185  0.44173654  0.22358930    -0.66300
Ni76       Ni  0.43116072  0.54086405  0.23798823     1.27400
Ni77       Ni  0.44503166  0.51425608  0.14927921     1.26100
H78         H  0.48145304  0.47777820  0.17208602     0.38800
O79         O  0.41213350  0.81310703  0.09151663    -0.81100
O80         O  0.43276661  0.69678979  0.12119584    -0.65800
O81         O  0.45595281  0.76778061  0.09236269    -1.12400
C82         C  0.39968003  0.74638077  0.96775416     1.05800
O83         O  0.45447877  0.68200328  0.06302080    -0.79000
O84         O  0.47959250  0.71675925  0.00558095    -0.66600
Ni85       Ni  0.44631601  0.79564972  0.12840540     1.34900
C86         C  0.49287437  0.73991793  0.99983977     0.84500
O87         O  0.47033782  0.73570119  0.15972949    -0.79600
O88         O  0.47962582  0.77953076  0.16723274    -0.89800
C89         C  0.44272528  0.67781958  0.09886764     0.84100
O90         O  0.40369052  0.78156757  0.15760206    -0.68000
O91         O  0.40791264  0.72251509  0.97709306    -0.87300
C92         C  0.38627778  0.75956452  0.15797694     0.84900
C93         C  0.48321208  0.75554790  0.17925147     1.06500
H94         H  0.39125063  0.73048979  0.06238217     0.38300
O95         O  0.41846851  0.73170663  0.05762131    -1.10000
O96         O  0.47673683  0.76067640  0.01335705    -0.66600
Ni97       Ni  0.42923367  0.76748738  0.04212348     1.26300
O98         O  0.39625009  0.74052082  0.13555789    -0.66900
O99         O  0.40315847  0.76579124  0.99156404    -0.79200
C100        C  0.42208062  0.82062328  0.05636899     0.84300
O101        O  0.43714868  0.80449474  0.03196169    -0.66300
Ni102      Ni  0.43074632  0.70388708  0.02183579     1.27400
Ni103      Ni  0.44410836  0.73277924  0.10871220     1.26100
H104        H  0.48308012  0.76831916  0.08677284     0.38800
O105        O  0.08462935  0.43528388  0.30704681    -0.81100
O106        O  0.10436304  0.55777853  0.27758602    -0.65800
O107        O  0.12166571  0.48455361  0.30296521    -1.12400
C108        C  0.05885316  0.50878649  0.42568412     1.05800
O109        O  0.12993191  0.56665403  0.33670692    -0.79000
O110        O  0.14003142  0.53397753  0.40166235    -0.66600
Ni111      Ni  0.10903933  0.45711986  0.26657754     1.34900
C112        C  0.15604323  0.51144578  0.40170421     0.84500
O113        O  0.13790278  0.51889377  0.23724779    -0.79600
O114        O  0.13262838  0.47575010  0.22234689    -0.89800
C115        C  0.11944820  0.57410662  0.30169175     0.84100
O116        O  0.06018830  0.47042585  0.25132911    -0.68000
O117        O  0.06422156  0.53266872  0.41409134    -0.87300
C118        C  0.04652168  0.49358893  0.24765010     0.84900
C119        C  0.14181925  0.49951165  0.21353129     1.06500
H120        H  0.05837377  0.52216032  0.33300959     0.38300
O121        O  0.08550432  0.52103549  0.33830265    -1.10000
O122        O  0.14389242  0.49234404  0.38068702    -0.66600
Ni123      Ni  0.09586894  0.48551414  0.35413886     1.26300
O124        O  0.06385528  0.51427629  0.25972551    -0.66900
O125        O  0.06984264  0.48864566  0.40547573    -0.79200
C126        C  0.09600038  0.43019026  0.34265904     0.84300
O127        O  0.10572716  0.44879845  0.36606732    -0.66300
Ni128      Ni  0.09670778  0.54873577  0.37439981     1.27400
Ni129      Ni  0.11184476  0.52062179  0.28778285     1.26100
H130        H  0.14882244  0.48304861  0.30772754     0.38800
O131        O  0.07269906  0.31618490  0.43502242    -0.81100
O132        O  0.10280209  0.19586703  0.47737277    -0.65800
O133        O  0.11366059  0.26918799  0.44809428    -1.12400
C134        C  0.05374685  0.23990603  0.32672581     1.05800
O135        O  0.12680041  0.18565080  0.41773761    -0.79000
O136        O  0.13294460  0.21622902  0.34986899    -0.66600
Ni137      Ni  0.09174340  0.29602136  0.48027273     1.34900
C138        C  0.15053315  0.23817727  0.34936360     0.84500
O139        O  0.13075512  0.23810369  0.51682527    -0.79600
O140        O  0.10884462  0.27889097  0.52885524    -0.89800
C141        C  0.11915201  0.17947587  0.45417436     0.84100
O142        O  0.04265144  0.27999212  0.48581182    -0.68000
O143        O  0.05687566  0.21636914  0.34092251    -0.87300
C144        C  0.03498215  0.25669267  0.49792994     0.84900
C145        C  0.12339060  0.25706553  0.54078904     1.06500
H146        H  0.05381926  0.22985124  0.41962601     0.38300
O147        O  0.08100565  0.23060273  0.41447479    -1.10000
O148        O  0.14098559  0.25722360  0.37217458    -0.66600
Ni149      Ni  0.09161234  0.26548474  0.39562981     1.26300
O150        O  0.05781900  0.23735452  0.49294321    -0.66900
O151        O  0.06805269  0.26022986  0.34381030    -0.79200
C152        C  0.08943321  0.32085934  0.40175561     0.84300
O153        O  0.10212039  0.30178516  0.38090011    -0.66300
Ni154      Ni  0.09137609  0.20181935  0.38034730     1.27400
Ni155      Ni  0.10661510  0.23317281  0.46535170     1.26100
H156        H  0.14075287  0.27266582  0.44559818     0.38800
O157        O  0.20631395  0.43103045  0.94367943    -0.81100
O158        O  0.18497412  0.55444110  0.97355084    -0.65800
O159        O  0.17118006  0.48069570  0.95265194    -1.12400
C160        C  0.22686659  0.50622004  0.82594182     1.05800
O161        O  0.15835973  0.56323742  0.91435096    -0.79000
O162        O  0.14960209  0.53130869  0.85029627    -0.66600
Ni163      Ni  0.19460439  0.45501541  0.98691520     1.34900
C164        C  0.13036096  0.51013651  0.85389767     0.84500
O165        O  0.15711193  0.51385261  0.01777106    -0.79600
O166        O  0.18417453  0.47514875  0.03464397    -0.89800
C167        C  0.16684111  0.57005356  0.95002238     0.84100
O168        O  0.24430861  0.47035895  0.98262820    -0.68000
O169        O  0.22532374  0.53007236  0.83822320    -0.87300
C170        C  0.25297417  0.49329496  0.99490310     0.84900
C171        C  0.16769743  0.49672661  0.04401572     1.06500
H172        H  0.23100670  0.51847969  0.91756092     0.38300
O173        O  0.20362288  0.51800116  0.91373285    -1.10000
O174        O  0.14071488  0.49143204  0.87765567    -0.66600
Ni175      Ni  0.19111817  0.48300676  0.89890893     1.26300
O176        O  0.22980496  0.51271483  0.99144092    -0.66900
O177        O  0.21241476  0.48661575  0.84545265    -0.79200
C178        C  0.19157908  0.42758642  0.90902858     0.84300
O179        O  0.17936237  0.44693066  0.88782418    -0.66300
Ni180      Ni  0.19249161  0.54596567  0.87739372     1.27400
Ni181      Ni  0.17990341  0.51702441  0.96550852     1.26100
H182        H  0.14395672  0.47736383  0.95197908     0.38800
O183        O  0.20319855  0.31775590  0.80736702    -0.81100
O184        O  0.18872417  0.19430720  0.77703232    -0.65800
O185        O  0.16943468  0.26708446  0.80132020    -1.12400
C186        C  0.22938481  0.24197814  0.92583839     1.05800
O187        O  0.16219995  0.18347226  0.83546406    -0.79000
O188        O  0.14749037  0.21550589  0.89778452    -0.66600
Ni189      Ni  0.18506086  0.29478188  0.76556337     1.34900
C190        C  0.13050166  0.23766180  0.89640529     0.84500
O191        O  0.15523219  0.23339869  0.73564572    -0.79600
O192        O  0.16775361  0.27575154  0.71934488    -0.89800
C193        C  0.17218233  0.17750279  0.79988471     0.84100
O194        O  0.23561587  0.28209354  0.75821973    -0.68000
O195        O  0.22339989  0.21813129  0.91522722    -0.87300
C196        C  0.24733621  0.25908024  0.74965903     0.84900
C197        C  0.15596988  0.25268967  0.71065606     1.06500
H198        H  0.23252283  0.22949225  0.83353385     0.38300
O199        O  0.20522557  0.23024769  0.83798577    -1.10000
O200        O  0.14425106  0.25772030  0.87799646    -0.66600
Ni201      Ni  0.19322877  0.26544590  0.85340671     1.26300
O202        O  0.22866349  0.23814398  0.75903919    -0.66900
O203        O  0.21794516  0.26205734  0.90523847    -0.79200
C204        C  0.19121054  0.32113083  0.84308521     0.84300
O205        O  0.18169895  0.30156032  0.86535059    -0.66300
Ni206      Ni  0.19317378  0.20194180  0.87411140     1.27400
Ni207      Ni  0.18033527  0.23118751  0.78679642     1.26100
H208        H  0.14206999  0.26868579  0.80460383     0.38800
O209        O  0.38205082  0.31105119  0.16695650    -0.81100
O210        O  0.35342050  0.19511206  0.14049338    -0.65800
O211        O  0.33486608  0.26692356  0.16562663    -1.12400
C212        C  0.36926455  0.24640442  0.29631444     1.05800
O213        O  0.33253896  0.17862834  0.19887161    -0.79000
O214        O  0.29328675  0.21904979  0.23436732    -0.66600
Ni215      Ni  0.34822344  0.29439146  0.12908473     1.34900
C216        C  0.28470275  0.24212594  0.24615147     0.84500
O217        O  0.32134711  0.23532987  0.09883447    -0.79600
O218        O  0.31497348  0.27929702  0.08958699    -0.89800
C219        C  0.34322530  0.17562648  0.16257229     0.84100
O220        O  0.39079284  0.27850954  0.10257387    -0.68000
O221        O  0.35223248  0.22503573  0.28720293    -0.87300
C222        C  0.40708089  0.25611559  0.10486589     0.84900
C223        C  0.30925233  0.25544213  0.07869364     1.06500
H224        H  0.39335801  0.22554202  0.20316511     0.38300
O225        O  0.36624062  0.22910426  0.20466968    -1.10000
O226        O  0.30817176  0.26144890  0.24282189    -0.66600
Ni227      Ni  0.35840371  0.26564161  0.21735808     1.26300
O228        O  0.39485301  0.23758930  0.12794556    -0.66900
O229        O  0.38113408  0.26274777  0.26963465    -0.79200
C230        C  0.37116175  0.31867111  0.20150895     0.84300
O231        O  0.35353803  0.30299177  0.22533921    -0.66300
Ni232      Ni  0.34298831  0.20396903  0.24037645     1.27400
Ni233      Ni  0.34456862  0.23147129  0.15146353     1.26100
H234        H  0.30755560  0.26844670  0.16940139     0.38800
O235        O  0.37734072  0.93421846  0.09650928    -0.81100
O236        O  0.35333586  0.05083229  0.11646953    -0.65800
O237        O  0.33265027  0.97957586  0.08982129    -1.12400
C238        C  0.38724982  0.99784112  0.96603277     1.05800
O239        O  0.34237985  0.06774167  0.05527514    -0.79000
O240        O  0.30542381  0.02837960  0.01502313    -0.66600
Ni241      Ni  0.33983173  0.95222331  0.12855043     1.34900
C242        C  0.29646129  0.00563281  0.00220747     0.84500
O243        O  0.31446274  0.01218894  0.15422828    -0.79600
O244        O  0.30300626  0.96859938  0.16283570    -0.89800
C245        C  0.34787832  0.07045488  0.09292418     0.84100
O246        O  0.38017213  0.96712864  0.16007847    -0.68000
O247        O  0.37024776  0.01977287  0.97114292    -0.87300
C248        C  0.39889805  0.98863782  0.15799631     0.84900
C249        C  0.29914930  0.99266503  0.17323011     1.06500
H250        H  0.39850146  0.01842165  0.06045761     0.38300
O251        O  0.37158959  0.01590682  0.05504537    -1.10000
O252        O  0.31706160  0.98518664  0.00928385    -0.66600
Ni253      Ni  0.36291502  0.97952881  0.04221213     1.26300
O254        O  0.38979932  0.00714908  0.13356004    -0.66900
O255        O  0.39299119  0.98107745  0.99423923    -0.79200
C256        C  0.37310054  0.92703136  0.06015473     0.84300
O257        O  0.35707094  0.94222452  0.03442864    -0.66300
Ni258      Ni  0.35624493  0.04162353  0.01594715     1.27400
Ni259      Ni  0.34316692  0.01481529  0.10462374     1.26100
H260        H  0.30600204  0.97884172  0.08219479     0.38800
O261        O  0.41366706  0.31586086  0.58587850    -0.81100
O262        O  0.43380884  0.19707339  0.61725370    -0.65800
O263        O  0.45596570  0.26867936  0.58761854    -1.12400
C264        C  0.39727750  0.24831396  0.46485411     1.05800
O265        O  0.44889973  0.18085670  0.55763758    -0.79000
O266        O  0.47839687  0.21652160  0.50442925    -0.66600
Ni267      Ni  0.44558711  0.29678998  0.62355703     1.34900
C268        C  0.49212350  0.23938587  0.49712453     0.84500
O269        O  0.47235047  0.23613874  0.65411441    -0.79600
O270        O  0.47673942  0.28012294  0.66382810    -0.89800
C271        C  0.44131371  0.17753525  0.59489342     0.84100
O272        O  0.40048453  0.28319305  0.64879668    -0.68000
O273        O  0.40753247  0.22467117  0.47280542    -0.87300
C274        C  0.38395917  0.26085294  0.64966806     0.84900
C275        C  0.48359630  0.25621440  0.67414028     1.06500
H276        H  0.39009821  0.23150697  0.55961507     0.38300
O277        O  0.41720269  0.23250374  0.55407330    -1.10000
O278        O  0.47521478  0.26056878  0.50808760    -0.66600
Ni279      Ni  0.42845178  0.26837911  0.53815111     1.26300
O280        O  0.39739002  0.24066170  0.63221921    -0.66900
O281        O  0.40039034  0.26727482  0.48922676    -0.79200
C282        C  0.42267213  0.32211729  0.54992575     0.84300
O283        O  0.43754456  0.30520323  0.52670130    -0.66300
Ni284      Ni  0.42814216  0.20480358  0.51742607     1.27400
Ni285      Ni  0.44458352  0.23330917  0.60415243     1.26100
H286        H  0.48300434  0.26949176  0.58163828     0.38800
O287        O  0.40415136  0.93463665  0.67368079    -0.81100
O288        O  0.43557060  0.04950574  0.63762121    -0.65800
O289        O  0.45302042  0.97789130  0.66876685    -1.12400
C290        C  0.41670933  0.00068859  0.79734988     1.05800
O291        O  0.45478232  0.06683080  0.69566837    -0.79000
O292        O  0.49416428  0.02708891  0.73454237    -0.66600
Ni293      Ni  0.43880373  0.94987133  0.63463177     1.34900
C294        C  0.50269960  0.00426488  0.74830684     0.84500
O295        O  0.46690717  0.00794766  0.59950338    -0.79600
O296        O  0.47230017  0.96367557  0.59383224    -0.89800
C297        C  0.44493304  0.06925873  0.65881631     0.84100
O298        O  0.39638128  0.96555381  0.60749730    -0.68000
O299        O  0.43484213  0.02168956  0.78766287    -0.87300
C300        C  0.37952058  0.98767315  0.60932109     0.84900
C301        C  0.47838247  0.98724771  0.58107750     1.06500
H302        H  0.39473313  0.02006463  0.70267177     0.38300
O303        O  0.42180931  0.01651573  0.70465164    -1.10000
O304        O  0.47931343  0.98480842  0.74601329    -0.66600
Ni305      Ni  0.42921028  0.98019405  0.72012296     1.26300
O306        O  0.39320044  0.00703237  0.62892252    -0.66900
O307        O  0.40548635  0.98409848  0.77143634    -0.79200
C308        C  0.41443774  0.92729500  0.70877648     0.84300
O309        O  0.43340378  0.94283615  0.73107465    -0.66300
Ni310      Ni  0.44438807  0.04209734  0.73906605     1.27400
Ni311      Ni  0.44373325  0.01316409  0.65165609     1.26100
H312        H  0.48029009  0.97619061  0.67276151     0.38800
O313        O  0.57610094  0.93196948  0.31676587    -0.81100
O314        O  0.59980172  0.05389285  0.27935529    -0.65800
O315        O  0.61517398  0.98029168  0.30537740    -1.12400
C316        C  0.55958675  0.00553556  0.43084371     1.05800
O317        O  0.62577042  0.06379916  0.33822618    -0.79000
O318        O  0.63899413  0.03170544  0.40189828    -0.66600
Ni319      Ni  0.59637854  0.95267689  0.27246162     1.34900
C320        C  0.65671891  0.00989418  0.39995331     0.84500
O321        O  0.62847594  0.01287436  0.23724930    -0.79600
O322        O  0.61543331  0.97008810  0.22487935    -0.89800
C323        C  0.61630395  0.07035164  0.30249306     0.84100
O324        O  0.54682777  0.96703652  0.26380508    -0.68000
O325        O  0.56334390  0.02945801  0.41864293    -0.87300
C326        C  0.53524639  0.99049612  0.25757278     0.84900
C327        C  0.62765011  0.99286786  0.21407224     1.06500
H328        H  0.55484307  0.01832324  0.33827511     0.38300
O329        O  0.58223269  0.01761391  0.34198326    -1.10000
O330        O  0.64396703  0.99014102  0.38066553    -0.66600
Ni331      Ni  0.59404476  0.98235921  0.35841151     1.26300
O332        O  0.55569662  0.01085201  0.26494994    -0.66900
O333        O  0.57157078  0.98564468  0.41107076    -0.79200
C334        C  0.59153956  0.92736006  0.35075381     0.84300
O335        O  0.60541345  0.94621913  0.37098500    -0.66300
Ni336      Ni  0.59403107  0.04568459  0.37718936     1.27400
Ni337      Ni  0.60566929  0.01635012  0.28975517     1.26100
H338        H  0.64253405  0.97796365  0.30739469     0.38800
O339        O  0.59413443  0.81781227  0.45530212    -0.81100
O340        O  0.60443947  0.69202093  0.48054726    -0.65800
O341        O  0.62049942  0.76556594  0.45656120    -1.12400
C342        C  0.55553945  0.74176341  0.33517361     1.05800
O343        O  0.62943753  0.68308896  0.42111613    -0.79000
O344        O  0.63878471  0.71695002  0.35771879    -0.66600
Ni345      Ni  0.60322575  0.79064949  0.49519532     1.34900
C346        C  0.65343674  0.73988967  0.35563892     0.84500
O347        O  0.63938391  0.73078248  0.51964457    -0.79600
O348        O  0.61235074  0.76788316  0.54111540    -0.89800
C349        C  0.62069935  0.67601380  0.45687330     0.84100
O350        O  0.55174738  0.77840621  0.49204573    -0.68000
O351        O  0.56276106  0.71776012  0.34495631    -0.87300
C352        C  0.54117628  0.75543699  0.50358014     0.84900
C353        C  0.63046339  0.74648634  0.54751517     1.06500
H354        H  0.55720335  0.72710031  0.42689861     0.38300
O355        O  0.58419644  0.72872242  0.42109222    -1.10000
O356        O  0.64087367  0.75902394  0.37655804    -0.66600
Ni357      Ni  0.59332146  0.76447940  0.40598839     1.26300
O358        O  0.56306068  0.73520131  0.50000693    -0.66900
O359        O  0.56561671  0.76162861  0.35618924    -0.79200
C360        C  0.59768632  0.82050873  0.41732833     0.84300
O361        O  0.60100878  0.80104013  0.39377606    -0.66300
Ni362      Ni  0.59567248  0.70148400  0.38428588     1.27400
Ni363      Ni  0.61136244  0.72917853  0.47059493     1.26100
H364        H  0.64754318  0.76820560  0.45188396     0.38800
O365        O  0.71505905  0.93052161  0.93832955    -0.81100
O366        O  0.68534661  0.05093083  0.98023463    -0.65800
O367        O  0.67478682  0.97796899  0.95127457    -1.12400
C368        C  0.73354570  0.00947872  0.82926016     1.05800
O369        O  0.66000039  0.06143254  0.92100647    -0.79000
O370        O  0.65318940  0.03201937  0.85321040    -0.66600
Ni371      Ni  0.69671204  0.95056382  0.98351345     1.34900
C372        C  0.63632374  0.00980439  0.85285537     0.84500
O373        O  0.65791523  0.00790218  0.02015144    -0.79600
O374        O  0.67994268  0.96702277  0.03225442    -0.89800
C375        C  0.66919936  0.06766349  0.95673943     0.84100
O376        O  0.74598424  0.96639461  0.98861023    -0.68000
O377        O  0.72924629  0.03289865  0.84265081    -0.87300
C378        C  0.75397169  0.98957461  0.00026561     0.84900
C379        C  0.66489997  0.98849870  0.04415775     1.06500
H380        H  0.73392218  0.01837272  0.92191593     0.38300
O381        O  0.70670187  0.01735583  0.91717732    -1.10000
O382        O  0.64688351  0.99054168  0.87543412    -0.66600
Ni383      Ni  0.69665034  0.98273218  0.89872839     1.26300
O384        O  0.73104332  0.00901757  0.99527454    -0.66900
O385        O  0.72013178  0.98880842  0.84691071    -0.79200
C386        C  0.70010558  0.92736955  0.90377526     0.84300
O387        O  0.68689065  0.94694445  0.88393112    -0.66300
Ni388      Ni  0.69502570  0.04640940  0.88280809     1.27400
Ni389      Ni  0.68171798  0.01373075  0.96844150     1.26100
H390        H  0.64772460  0.97451121  0.94887318     0.38800
O391        O  0.69958470  0.81667697  0.80643705    -0.81100
O392        O  0.68482169  0.69150940  0.78354892    -0.65800
O393        O  0.66975100  0.76505399  0.80492449    -1.12400
C394        C  0.72715744  0.74075585  0.93093511     1.05800
O395        O  0.65813730  0.68148450  0.84217458    -0.79000
O396        O  0.64343467  0.71559741  0.90118602    -0.66600
Ni397      Ni  0.68902796  0.79029640  0.76662931     1.34900
C398        C  0.62910709  0.73859252  0.90025738     0.84500
O399        O  0.65203266  0.73080844  0.74247676    -0.79600
O400        O  0.67933675  0.76822929  0.72076745    -0.89800
C401        C  0.66701911  0.67534043  0.80632575     0.84100
O402        O  0.73961454  0.77704096  0.77105041    -0.68000
O403        O  0.71849486  0.71693368  0.92233579    -0.87300
C404        C  0.74984262  0.75415926  0.76006847     0.84900
C405        C  0.66121783  0.74687144  0.71454577     1.06500
H406        H  0.73074092  0.72560854  0.83876786     0.38300
O407        O  0.70357907  0.72757886  0.84321943    -1.10000
O408        O  0.64534658  0.75821228  0.88292271    -0.66600
Ni409      Ni  0.69448328  0.76353336  0.85670540     1.26300
O410        O  0.72764856  0.73406768  0.76422110    -0.66900
O411        O  0.71979353  0.76056244  0.90793465    -0.79200
C412        C  0.69377291  0.81953621  0.84399421     0.84300
O413        O  0.68659981  0.80008550  0.86735903    -0.66300
Ni414      Ni  0.68907297  0.70040700  0.88060360     1.27400
Ni415      Ni  0.67842337  0.72861639  0.79243113     1.26100
H416        H  0.64260706  0.76795031  0.80814538     0.38800
O417        O  0.88400974  0.81346635  0.16788974    -0.81100
O418        O  0.84722634  0.69814816  0.14099531    -0.65800
O419        O  0.83395259  0.77026935  0.16874563    -1.12400
C420        C  0.87880488  0.74723051  0.29504582     1.05800
O421        O  0.83066739  0.68122718  0.20084797    -0.79000
O422        O  0.79558502  0.72234956  0.23978075    -0.66600
Ni423      Ni  0.84747806  0.79766777  0.13175345     1.34900
C424        C  0.78803663  0.74550173  0.25207995     0.84500
O425        O  0.81538737  0.73945975  0.10227620    -0.79600
O426        O  0.81240088  0.78367402  0.09289307    -0.89800
C427        C  0.83844935  0.67859012  0.16354768     0.84100
O428        O  0.88834944  0.78093390  0.10399985    -0.68000
O429        O  0.85838876  0.72686499  0.28849670    -0.87300
C430        C  0.90323090  0.75806635  0.10490414     0.84900
C431        C  0.80518945  0.76001902  0.08207237     1.06500
H432        H  0.89273549  0.72714515  0.20099444     0.38300
O433        O  0.86594934  0.73123217  0.20466995    -1.10000
O434        O  0.81226608  0.76443818  0.24830651    -0.66600
Ni435      Ni  0.86096166  0.76776865  0.21844870     1.26300
O436        O  0.89011424  0.73943867  0.12709389    -0.66900
O437        O  0.88849054  0.76357764  0.26756814    -0.79200
C438        C  0.87714227  0.82041821  0.20388899     0.84300
O439        O  0.85888511  0.80518341  0.22786947    -0.66300
Ni440      Ni  0.84476903  0.70625576  0.24197328     1.27400
Ni441      Ni  0.84094933  0.73458436  0.15332749     1.26100
H442        H  0.80707170  0.77258007  0.17447755     0.38800
O443        O  0.88597013  0.43801013  0.08693731    -0.81100
O444        O  0.85523234  0.55219609  0.11901536    -0.65800
O445        O  0.83699814  0.48104709  0.08900305    -1.12400
C446        C  0.87069946  0.50641574  0.95986947     1.05800
O447        O  0.82843355  0.56875981  0.06370549    -0.79000
O448        O  0.79377726  0.52915890  0.02160421    -0.66600
Ni449      Ni  0.84990796  0.45289043  0.12420899     1.34900
C450        C  0.78658755  0.50610953  0.00866140     0.84500
O451        O  0.82401330  0.51053662  0.15829230    -0.79600
O452        O  0.81470475  0.46653845  0.16306972    -0.89800
C453        C  0.84168142  0.57165845  0.09914404     0.84100
O454        O  0.89107309  0.46862970  0.15316297    -0.68000
O455        O  0.85483243  0.52769590  0.97118193    -0.87300
C456        C  0.90860914  0.49055779  0.15034165     0.84900
C457        C  0.81034070  0.48999575  0.17619288     1.06500
H458        H  0.89394919  0.52431058  0.05372090     0.38300
O459        O  0.86697717  0.52021205  0.05238429    -1.10000
O460        O  0.81071896  0.48721852  0.01169118    -0.66600
Ni461      Ni  0.86077557  0.48384173  0.03739969     1.26300
O462        O  0.89697887  0.50919725  0.12722972    -0.66900
O463        O  0.88263048  0.48881298  0.98481197    -0.79200
C464        C  0.87761730  0.43094128  0.05133052     0.84300
O465        O  0.85857988  0.44624662  0.02795772    -0.66300
Ni466      Ni  0.84251088  0.54617364  0.01952255     1.27400
Ni467      Ni  0.84636272  0.51607975  0.10562827     1.26100
H468        H  0.80972112  0.47959546  0.08492552     0.38800
O469        O  0.90952581  0.43349673  0.66905996    -0.81100
O470        O  0.93264568  0.55154471  0.63596529    -0.65800
O471        O  0.95291611  0.47956343  0.66543065    -1.12400
C472        C  0.89631086  0.50244639  0.78978374     1.05800
O473        O  0.95346274  0.56545918  0.69493177    -0.79000
O474        O  0.97619492  0.53141345  0.75309257    -0.66600
Ni475      Ni  0.94192469  0.45132128  0.63043533     1.34900
C476        C  0.99162139  0.50873555  0.75595448     0.84500
O477        O  0.96894664  0.51138205  0.59790061    -0.79600
O478        O  0.97364134  0.46725899  0.58980524    -0.89800
C479        C  0.94266545  0.57027092  0.65904116     0.84100
O480        O  0.89782216  0.46525143  0.60381131    -0.68000
O481        O  0.90323779  0.52632644  0.77945087    -0.87300
C482        C  0.88173343  0.48773640  0.60228908     0.84900
C483        C  0.97983410  0.49104360  0.57813466     1.06500
H484        H  0.88915136  0.51719891  0.69481364     0.38300
O485        O  0.91635170  0.51618674  0.69976847    -1.10000
O486        O  0.97567996  0.48773676  0.74300873    -0.66600
Ni487      Ni  0.92725256  0.48046724  0.71622530     1.26300
O488        O  0.89427700  0.50759192  0.62156152    -0.66900
O489        O  0.90200945  0.48268525  0.76719703    -0.79200
C490        C  0.92002536  0.42676284  0.70439374     0.84300
O491        O  0.93549247  0.44350168  0.72759711    -0.66300
Ni492      Ni  0.92786674  0.54428341  0.73537578     1.27400
Ni493      Ni  0.94227275  0.51487861  0.64868847     1.26100
H494        H  0.98011114  0.47862495  0.67044034     0.38800
O495        O  0.90557908  0.81483212  0.58783110    -0.81100
O496        O  0.93618490  0.69820082  0.61947460    -0.65800
O497        O  0.95354671  0.77073034  0.59066204    -1.12400
C498        C  0.91270425  0.74893677  0.46280155     1.05800
O499        O  0.95840102  0.68333117  0.56136311    -0.79000
O500        O  0.99335520  0.72289522  0.52040257    -0.66600
Ni501      Ni  0.94016162  0.79841407  0.62584336     1.34900
C502        C  0.00173772  0.74613958  0.50859274     0.84500
O503        O  0.96754459  0.73956843  0.65912174    -0.79600
O504        O  0.97357902  0.78369697  0.66594131    -0.89800
C505        C  0.94719842  0.67920932  0.59731614     0.84100
O506        O  0.89799223  0.78246392  0.65339938    -0.68000
O507        O  0.93084302  0.72777148  0.47128522    -0.87300
C508        C  0.88217814  0.75985777  0.65326380     0.84900
C509        C  0.97850851  0.75998135  0.67861433     1.06500
H510        H  0.89469413  0.72897424  0.55668435     0.38300
O511        O  0.92173001  0.73262294  0.55430473    -1.10000
O512        O  0.97821926  0.76534887  0.51221681    -0.66600
Ni513      Ni  0.92872327  0.76916127  0.53968381     1.26300
O514        O  0.89441480  0.74111866  0.63128965    -0.66900
O515        O  0.90352818  0.76588993  0.48902287    -0.79200
C516        C  0.91511243  0.82214115  0.55242417     0.84300
O517        O  0.93307807  0.80654070  0.52944779    -0.66300
Ni518      Ni  0.94382171  0.70749819  0.51888714     1.27400
Ni519      Ni  0.94427436  0.73511698  0.60693450     1.26100
H520        H  0.98074722  0.77241363  0.58610341     0.38800
O521        O  0.70261821  0.43074072  0.44093627    -0.81100
O522        O  0.68564181  0.55370445  0.47328890    -0.65800
O523        O  0.66817903  0.48072958  0.44953789    -1.12400
C524        C  0.72614269  0.50728936  0.32465026     1.05800
O525        O  0.65746725  0.56337518  0.41533811    -0.79000
O526        O  0.64692126  0.53234985  0.34986818    -0.66600
Ni527      Ni  0.68675633  0.45341608  0.48430747     1.34900
C528        C  0.62893628  0.51054591  0.35162194     0.84500
O529        O  0.65409672  0.51386847  0.51486422    -0.79600
O530        O  0.67129864  0.47233950  0.53164382    -0.89800
C531        C  0.66667079  0.56961467  0.45110397     0.84100
O532        O  0.73760418  0.46680682  0.48852939    -0.68000
O533        O  0.72277600  0.53098366  0.33706966    -0.87300
C534        C  0.74823201  0.48998460  0.49769490     0.84900
C535        C  0.65736203  0.49490354  0.54009911     1.06500
H536        H  0.73004461  0.51840938  0.41642644     0.38300
O537        O  0.70267897  0.51788210  0.41241197    -1.10000
O538        O  0.64011909  0.49138180  0.37392622    -0.66600
Ni539      Ni  0.68990285  0.48305953  0.39658923     1.26300
O540        O  0.72743998  0.51037424  0.49095418    -0.66900
O541        O  0.71289767  0.48708872  0.34387121    -0.79200
C542        C  0.68846967  0.42753583  0.40597516     0.84300
O543        O  0.67772280  0.44715420  0.38449017    -0.66300
Ni544      Ni  0.69058216  0.54634871  0.37709791     1.27400
Ni545      Ni  0.67852635  0.51663836  0.46379115     1.26100
H546        H  0.64076966  0.47855804  0.44747635     0.38800
O547        O  0.70092510  0.31779696  0.30409400    -0.81100
O548        O  0.68368280  0.19283304  0.27995628    -0.65800
O549        O  0.66897333  0.26682406  0.29958915    -1.12400
C550        C  0.73071885  0.24321759  0.42344965     1.05800
O551        O  0.65919423  0.18411895  0.34011880    -0.79000
O552        O  0.65108061  0.21702500  0.40285797    -0.66600
Ni553      Ni  0.69018474  0.29211229  0.26282443     1.34900
C554        C  0.63127340  0.23786311  0.39860995     0.84500
O555        O  0.65239678  0.23264691  0.23734679    -0.79600
O556        O  0.67984239  0.27046624  0.21635590    -0.89800
C557        C  0.66627241  0.17719868  0.30416193     0.84100
O558        O  0.74064159  0.27808026  0.26743068    -0.68000
O559        O  0.72756858  0.21921836  0.41244852    -0.87300
C560        C  0.75009498  0.25508803  0.25610904     0.84900
C561        C  0.66158368  0.24911224  0.20980388     1.06500
H562        H  0.73098949  0.22981566  0.33304146     0.38300
O563        O  0.70376434  0.23025631  0.33799466    -1.10000
O564        O  0.64193242  0.25715498  0.37609429    -0.66600
Ni565      Ni  0.69143968  0.26549310  0.35221879     1.26300
O566        O  0.72714473  0.23540449  0.25944788    -0.66900
O567        O  0.71546809  0.26276393  0.40447580    -0.79200
C568        C  0.68894671  0.32112542  0.33997414     0.84300
O569        O  0.67966543  0.30166621  0.36267569    -0.66300
Ni570      Ni  0.69389671  0.20253298  0.37525761     1.27400
Ni571      Ni  0.67808457  0.23039997  0.28761657     1.26100
H572        H  0.64173886  0.26982486  0.30154894     0.38800
O573        O  0.57590628  0.43112286  0.81240823    -0.81100
O574        O  0.60708589  0.55231969  0.77536838    -0.65800
O575        O  0.61653222  0.47859048  0.80125058    -1.12400
C576        C  0.55990771  0.50700848  0.92501107     1.05800
O577        O  0.63414231  0.56022144  0.83413078    -0.79000
O578        O  0.63934999  0.52919155  0.90115560    -0.66600
Ni579      Ni  0.59348942  0.45280395  0.76793509     1.34900
C580        C  0.65664876  0.50719157  0.89996157     0.84500
O581        O  0.63416992  0.51083243  0.73443041    -0.79600
O582        O  0.60944089  0.47120848  0.71983033    -0.89800
C583        C  0.62461662  0.56784026  0.79891122     0.84100
O584        O  0.54447047  0.46925215  0.76507604    -0.68000
O585        O  0.56358816  0.53060996  0.91120746    -0.87300
C586        C  0.53718516  0.49271158  0.75336294     0.84900
C587        C  0.62579132  0.49280728  0.70940413     1.06500
H588        H  0.55827543  0.51825582  0.83255898     0.38300
O589        O  0.58551211  0.51695504  0.83704819    -1.10000
O590        O  0.64600466  0.48867719  0.87670401    -0.66600
Ni591      Ni  0.59554237  0.48177485  0.85433062     1.26300
O592        O  0.56079005  0.51169706  0.75836921    -0.66900
O593        O  0.57319972  0.48658486  0.90718011    -0.79200
C594        C  0.59156345  0.42657255  0.84635647     0.84300
O595        O  0.60489966  0.44536454  0.86730782    -0.66300
Ni596      Ni  0.59826155  0.54487792  0.87177431     1.30600
Ni597      Ni  0.61018636  0.51492282  0.78576739     1.26100
H598        H  0.64356963  0.47476631  0.80302628     0.38800
O599        O  0.58431835  0.31501134  0.94738555    -0.81100
O600        O  0.60596841  0.19041262  0.97549854    -0.65800
O601        O  0.61840886  0.26453546  0.95157718    -1.12400
C602        C  0.55489348  0.23981817  0.82981655     1.05800
O603        O  0.62925434  0.18173058  0.91512578    -0.79000
O604        O  0.63638004  0.21518965  0.85095916    -0.66600
Ni605      Ni  0.59913050  0.28986876  0.98841480     1.34900
C606        C  0.65306967  0.23748745  0.85158300     0.84500
O607        O  0.63837389  0.23038531  0.01535606    -0.79600
O608        O  0.61295221  0.26879560  0.03455617    -0.89800
C609        C  0.62290807  0.17482927  0.95155555     0.84100
O610        O  0.54886188  0.27539171  0.98889587    -0.68000
O611        O  0.56009786  0.21585864  0.84112755    -0.87300
C612        C  0.54012639  0.25210607  0.00039498     0.84900
C613        C  0.63029023  0.24720886  0.04217790     1.06500
H614        H  0.55654936  0.22596801  0.92207334     0.38300
O615        O  0.58354978  0.22726681  0.91612682    -1.10000
O616        O  0.64173147  0.25631725  0.87379351    -0.66600
Ni617      Ni  0.59327330  0.26294518  0.90026944     1.26300
O618        O  0.56283825  0.23251126  0.99577774    -0.66900
O619        O  0.56742802  0.25978466  0.84918661    -0.79200
C620        C  0.59386217  0.31874701  0.91081340     0.84300
O621        O  0.60243229  0.29958873  0.88796504    -0.66300
Ni622      Ni  0.59417761  0.19981004  0.87938117     1.27400
Ni623      Ni  0.61087143  0.22794851  0.96580918     1.26100
H624        H  0.64544080  0.26774820  0.94781844     0.38800
O625        O  0.08403857  0.93176994  0.81240079    -0.81100
O626        O  0.10697557  0.05526404  0.77739728    -0.65800
O627        O  0.12048294  0.98129290  0.80169485    -1.12400
C628        C  0.06948402  0.00774802  0.92881887     1.05800
O629        O  0.13702554  0.06369721  0.83435298    -0.79000
O630        O  0.14992905  0.03155769  0.89784693    -0.66600
Ni631      Ni  0.09742249  0.95534793  0.76852796     1.34900
C632        C  0.16617481  0.00925232  0.89535449     0.84500
O633        O  0.13388247  0.01461849  0.73480231    -0.79600
O634        O  0.10916468  0.97502517  0.72044352    -0.89800
C635        C  0.12629001  0.07083976  0.79929612     0.84100
O636        O  0.04763024  0.97066130  0.77000049    -0.68000
O637        O  0.07476964  0.03161054  0.91688742    -0.87300
C638        C  0.03885161  0.99384354  0.75798500     0.84900
C639        C  0.12421290  0.99695915  0.70978039     1.06500
H640        H  0.06271229  0.02060102  0.83697867     0.38300
O641        O  0.09014191  0.01916173  0.83983016    -1.10000
O642        O  0.15191347  0.99004402  0.87603009    -0.66600
Ni643      Ni  0.10098546  0.98363867  0.85549060     1.26300
O644        O  0.06160375  0.01343410  0.76240665    -0.66900
O645        O  0.08040902  0.98762982  0.90884232    -0.79200
C646        C  0.09867694  0.92799328  0.84705575     0.84300
O647        O  0.11104650  0.94715144  0.86781716    -0.66300
Ni648      Ni  0.10524047  0.04683016  0.87446871     1.27400
Ni649      Ni  0.11210381  0.01777786  0.78728059     1.26100
H650        H  0.14769776  0.97800714  0.80238264     0.38800
O651        O  0.08144613  0.81653248  0.94860680    -0.81100
O652        O  0.10329417  0.69264142  0.97846329    -0.65800
O653        O  0.11669392  0.76650654  0.95455937    -1.12400
C654        C  0.05342075  0.74113066  0.83270443     1.05800
O655        O  0.12839213  0.68484951  0.91865751    -0.79000
O656        O  0.13355665  0.71718286  0.85266643    -0.66600
Ni657      Ni  0.09879783  0.79270044  0.99066899     1.34900
C658        C  0.15115716  0.73910816  0.85406235     0.84500
O659        O  0.13514566  0.73237699  0.01903731    -0.79600
O660        O  0.11550505  0.77278604  0.03715116    -0.89800
C661        C  0.11991376  0.67712581  0.95416159     0.84100
O662        O  0.04868823  0.77834343  0.99524028    -0.68000
O663        O  0.05721299  0.71735122  0.84546425    -0.87300
C664        C  0.03860881  0.75486316  0.00424189     0.84900
C665        C  0.13103666  0.75052786  0.04483410     1.06500
H666        H  0.05458347  0.72839416  0.92476462     0.38300
O667        O  0.08166714  0.72945009  0.91913612    -1.10000
O668        O  0.14087366  0.75756335  0.87746838    -0.66600
Ni669      Ni  0.09217525  0.76479468  0.90291022     1.26300
O670        O  0.06025503  0.73489568  0.99824981    -0.66900
O671        O  0.06680091  0.76123921  0.85134239    -0.79200
C672        C  0.09368691  0.82044487  0.91291252     0.84300
O673        O  0.10263119  0.80119100  0.89042288    -0.66300
Ni674      Ni  0.09236741  0.70184540  0.88290673     1.27400
Ni675      Ni  0.10847966  0.73009351  0.96909456     1.26100
H676        H  0.14383586  0.76926738  0.95089250     0.38800
O677        O  0.20214321  0.93422850  0.44869953    -0.81100
O678        O  0.18696254  0.05724146  0.47638998    -0.65800
O679        O  0.16734410  0.98452425  0.45198548    -1.12400
C680        C  0.22948379  0.00866919  0.32888777     1.05800
O681        O  0.16173671  0.06794800  0.41734744    -0.79000
O682        O  0.14803692  0.03535750  0.35579824    -0.66600
Ni683      Ni  0.17837058  0.95636265  0.48845186     1.34900
C684        C  0.13098887  0.01321393  0.35691729     0.84500
O685        O  0.15209170  0.01847393  0.51656082    -0.79600
O686        O  0.15535841  0.97506345  0.53200088    -0.89800
C687        C  0.16996260  0.07379339  0.45346584     0.84100
O688        O  0.22730463  0.96873165  0.50422730    -0.68000
O689        O  0.22386240  0.03257551  0.33921468    -0.87300
C690        C  0.24164905  0.99153143  0.50951223     0.84900
C691        C  0.14722961  0.99891553  0.54039806     1.06500
H692        H  0.23186413  0.02167057  0.42129142     0.38300
O693        O  0.20468043  0.02089036  0.41615318    -1.10000
O694        O  0.14459151  0.99307496  0.37511279    -0.66600
Ni695      Ni  0.19285910  0.98555041  0.40096121     1.26300
O696        O  0.22603852  0.01268663  0.49569265    -0.66900
O697        O  0.21840969  0.98853464  0.34960681    -0.79200
C698        C  0.19173478  0.93014517  0.41262055     0.84300
O699        O  0.18189722  0.94926414  0.38962272    -0.66300
Ni700      Ni  0.19337311  0.04908489  0.37967589     1.27400
Ni701      Ni  0.17855395  0.02026457  0.46655092     1.26100
H702        H  0.14008987  0.98362629  0.44736220     0.38800
O703        O  0.20751311  0.82008457  0.31123962    -0.81100
O704        O  0.18236092  0.69685480  0.28197477    -0.65800
O705        O  0.17097916  0.77061058  0.30483532    -1.12400
C706        C  0.23461099  0.74413888  0.42655101     1.05800
O707        O  0.15927408  0.68810339  0.34277479    -0.79000
O708        O  0.15478342  0.71986765  0.40790362    -0.66600
Ni709      Ni  0.19219543  0.79635449  0.26898451     1.34900
C710        C  0.13690653  0.74168608  0.40681344     0.84500
O711        O  0.15220937  0.73767629  0.24040572    -0.79600
O712        O  0.17809626  0.77650049  0.22216259    -0.89800
C713        C  0.16522053  0.68131941  0.30646971     0.84100
O714        O  0.24197913  0.78091522  0.26887699    -0.68000
O715        O  0.23121937  0.72035105  0.41442524    -0.87300
C716        C  0.25000389  0.75764765  0.25756411     0.84900
C717        C  0.16115304  0.75493073  0.21369225     1.06500
H718        H  0.23229257  0.73211983  0.33506033     0.38300
O719        O  0.20523415  0.73293709  0.34082767    -1.10000
O720        O  0.14614224  0.76031193  0.38238438    -0.66600
Ni721      Ni  0.19486144  0.76804946  0.35671188     1.26300
O722        O  0.22659971  0.73843641  0.26204251    -0.66900
O723        O  0.22008970  0.76410971  0.40808020    -0.79200
C724        C  0.19544538  0.82355511  0.34698406     0.84300
O725        O  0.18472039  0.80417796  0.36901611    -0.66300
Ni726      Ni  0.19570985  0.70494775  0.37756591     1.27400
Ni727      Ni  0.17824096  0.73426469  0.29091929     1.26100
H728        H  0.14393931  0.77404889  0.30781615     0.38800
O729        O  0.87936112  0.31297440  0.66340086    -0.81100
O730        O  0.85206365  0.19825779  0.63510795    -0.65800
O731        O  0.83146325  0.26929899  0.66388410    -1.12400
C732        C  0.87035416  0.24650806  0.79195730     1.05800
O733        O  0.82980120  0.18135240  0.69255304    -0.79000
O734        O  0.79340456  0.22018130  0.73285977    -0.66600
Ni735      Ni  0.84257915  0.29739593  0.62790503     1.34900
C736        C  0.78446696  0.24308713  0.74496852     0.84500
O737        O  0.81799604  0.23909619  0.59563858    -0.79600
O738        O  0.80693164  0.28297319  0.59050980    -0.89800
C739        C  0.84242303  0.17852802  0.65700179     0.84100
O740        O  0.88310198  0.28205773  0.59749754    -0.68000
O741        O  0.85497093  0.22477107  0.78212725    -0.87300
C742        C  0.90090033  0.26025494  0.59968676     0.84900
C743        C  0.80368577  0.25939677  0.57758655     1.06500
H744        H  0.89162540  0.22792364  0.69784488     0.38300
O745        O  0.86450173  0.23124068  0.70024711    -1.10000
O746        O  0.80739686  0.26279776  0.74179337    -0.66600
Ni747      Ni  0.85687364  0.26753855  0.71456766     1.26300
O748        O  0.89131316  0.24190923  0.62430763    -0.66900
O749        O  0.88094571  0.26383255  0.76604960    -0.79200
C750        C  0.87309744  0.31996582  0.69950878     0.84300
O751        O  0.85366463  0.30515476  0.72331606    -0.66300
Ni752      Ni  0.84313170  0.20506376  0.73503599     1.27400
Ni753      Ni  0.84180361  0.23431146  0.64781435     1.26100
H754        H  0.80426701  0.27029494  0.66878350     0.38800
O755        O  0.87689266  0.93542387  0.58896552    -0.81100
O756        O  0.85790396  0.05322997  0.61394205    -0.65800
O757        O  0.83405521  0.98201870  0.58828032    -1.12400
C758        C  0.87877104  0.00080224  0.45967834     1.05800
O759        O  0.83990326  0.06941602  0.55440690    -0.79000
O760        O  0.80186348  0.03179961  0.51350986    -0.66600
Ni761      Ni  0.84368885  0.95407791  0.62532962     1.34900
C762        C  0.79147484  0.00902554  0.50216494     0.84500
O763        O  0.82053553  0.01465541  0.65426697    -0.79600
O764        O  0.81127185  0.97087285  0.66391182    -0.89800
C765        C  0.84912944  0.07261841  0.59101734     0.84100
O766        O  0.88714988  0.96791179  0.65286167    -0.68000
O767        O  0.86475020  0.02337047  0.46745643    -0.87300
C768        C  0.90475550  0.98985464  0.65289459     0.84900
C769        C  0.80731640  0.99493915  0.67452348     1.06500
H770        H  0.89819811  0.02018537  0.55408964     0.38300
O771        O  0.87088981  0.01811057  0.55089773    -1.10000
O772        O  0.81174238  0.98840519  0.50902640    -0.66600
Ni773      Ni  0.85995260  0.98199828  0.53774487     1.26300
O774        O  0.89475896  0.00911607  0.62991969    -0.66900
O775        O  0.88585312  0.98349433  0.48684182    -0.79200
C776        C  0.86813842  0.92876342  0.55327654     0.84300
O777        O  0.85163383  0.94496181  0.52945419    -0.66300
Ni778      Ni  0.85305850  0.04439501  0.51362487     1.27400
Ni779      Ni  0.84645617  0.01713124  0.60291861     1.26100
H780        H  0.80685772  0.98163003  0.58314380     0.38800
O781        O  0.90989335  0.31520761  0.08513841    -0.81100
O782        O  0.92891062  0.19714316  0.11166134    -0.65800
O783        O  0.95324118  0.26867872  0.08525599    -1.12400
C784        C  0.89827340  0.25011480  0.96017473     1.05800
O785        O  0.94889885  0.18249299  0.05285471    -0.79000
O786        O  0.97767067  0.21828289  0.00017503    -0.66600
Ni787      Ni  0.94284777  0.29611480  0.12198747     1.34900
C788        C  0.99126702  0.24120754  0.99343504     0.84500
O789        O  0.96696521  0.23517373  0.15134171    -0.79600
O790        O  0.97521936  0.27891021  0.16058336    -0.89800
C791        C  0.93876932  0.17820257  0.08913370     0.84100
O792        O  0.89925604  0.28182193  0.14980975    -0.68000
O793        O  0.90746610  0.22625774  0.96818597    -0.87300
C794        C  0.88201805  0.25969820  0.14949600     0.84900
C795        C  0.97974488  0.25476316  0.17143520     1.06500
H796        H  0.88797210  0.23237723  0.05363181     0.38300
O797        O  0.91530161  0.23342209  0.04919117    -1.10000
O798        O  0.97474434  0.26228551  0.00558215    -0.66600
Ni799      Ni  0.92717661  0.26944436  0.03498989     1.26300
O800        O  0.89281973  0.24083099  0.12719508    -0.66900
O801        O  0.90085522  0.26899001  0.98488962    -0.79200
C802        C  0.91990278  0.32268558  0.04990380     0.84300
O803        O  0.93611773  0.30662509  0.02611874    -0.66300
Ni804      Ni  0.92768060  0.20613381  0.01258191     1.27400
Ni805      Ni  0.94071935  0.23336542  0.10028159     1.26100
H806        H  0.98042097  0.26923424  0.08000905     0.38800
O807        O  0.91706844  0.93340401  0.16679334    -0.81100
O808        O  0.93705338  0.05176761  0.13620100    -0.65800
O809        O  0.95952435  0.98056485  0.16708374    -1.12400
C810        C  0.90512580  0.99967517  0.29071819     1.05800
O811        O  0.94930673  0.06875033  0.19625543    -0.79000
O812        O  0.98536271  0.03160754  0.24198186    -0.66600
Ni813      Ni  0.95093884  0.95241358  0.13080889     1.34900
C814        C  0.99587694  0.00902258  0.25491893     0.84500
O815        O  0.97681371  0.01303570  0.10053902    -0.79600
O816        O  0.98419433  0.96917621  0.09245436    -0.89800
C817        C  0.94246320  0.07153211  0.15879216     0.84100
O818        O  0.90766084  0.96589661  0.10202693    -0.68000
O819        O  0.91928357  0.02246099  0.28366303    -0.87300
C820        C  0.89051152  0.98798871  0.10055663     0.84900
C821        C  0.99002476  0.99314873  0.08148697     1.06500
H822        H  0.89308851  0.01842511  0.19468337     0.38300
O823        O  0.92014944  0.01674186  0.20005219    -1.10000
O824        O  0.97672565  0.98804833  0.24755021    -0.66600
Ni825      Ni  0.93069540  0.98074944  0.21572214     1.26300
O826        O  0.90122364  0.00769255  0.12126492    -0.66900
O827        O  0.90147889  0.98210166  0.26405612    -0.79200
C828        C  0.92450257  0.92713852  0.20317517     0.84300
O829        O  0.93909025  0.94386375  0.22690733    -0.66300
Ni830      Ni  0.93409658  0.04350468  0.23731306     1.27400
Ni831      Ni  0.94803066  0.01572922  0.15005270     1.26100
H832        H  0.98638902  0.98004582  0.17389101     0.38800
C833        C  0.94158529  0.09890067  0.14121611    -0.00400
C834        C  0.94613304  0.10261074  0.09942134    -0.12300
C835        C  0.94518050  0.12796144  0.08166021     0.01800
C836        C  0.94007921  0.15063063  0.10598724    -0.00500
C837        C  0.93520307  0.14682163  0.14769436    -0.12200
C838        C  0.93550668  0.12151742  0.16530603     0.01700
H839        H  0.95033742  0.08559157  0.08034433     0.14700
H840        H  0.93068514  0.16373710  0.16690320     0.14700
C841        C  0.92767429  0.11960647  0.20803114     0.36400
C842        C  0.94840997  0.12970935  0.03826369     0.36300
N843        N  0.92115610  0.11817261  0.24221617    -0.44000
N844        N  0.95082850  0.13099929  0.00347398    -0.44000
C845        C  0.89448880  0.99365027  0.33255328    -0.00400
C846        C  0.92253579  0.98325863  0.35866507    -0.12300
C847        C  0.91725313  0.98354438  0.40063480     0.01800
C848        C  0.88374658  0.99483416  0.41655073    -0.00500
C849        C  0.85466510  0.00335486  0.39006145    -0.12200
C850        C  0.85982080  0.00286390  0.34836232     0.01700
H851        H  0.94946863  0.97638899  0.34634812     0.14700
H852        H  0.82835018  0.01148303  0.40207421     0.14700
C853        C  0.83007291  0.01319620  0.32238607     0.36400
C854        C  0.94758487  0.97409332  0.42655807     0.36300
N855        N  0.80626908  0.02140837  0.30147754    -0.44000
N856        N  0.97182558  0.96645318  0.44740542    -0.44000
C857        C  0.87361002  0.25152618  0.83559604    -0.00400
C858        C  0.90301915  0.26773586  0.85008235    -0.12300
C859        C  0.90955728  0.26965875  0.89162435     0.01800
C860        C  0.88588888  0.25561049  0.91893414    -0.00500
C861        C  0.85468448  0.24137652  0.90473915    -0.12200
C862        C  0.84815190  0.23921627  0.86359392     0.01700
H863        H  0.92231268  0.27752296  0.82905197     0.14700
H864        H  0.83667304  0.23055521  0.92594109     0.14700
C865        C  0.81586719  0.22322564  0.85160515     0.36400
C866        C  0.94274786  0.28400013  0.90532226     0.36300
N867        N  0.79024922  0.21009385  0.84244517    -0.44000
N868        N  0.96942650  0.29539482  0.91630023    -0.44000
C869        C  0.84819502  0.09992763  0.60732319    -0.00400
C870        C  0.84835889  0.10331308  0.64925134    -0.12300
C871        C  0.84685988  0.12853037  0.66606935     0.01800
C872        C  0.84461484  0.15131539  0.64068798    -0.00500
C873        C  0.84506563  0.14798198  0.59881676    -0.12200
C874        C  0.84701947  0.12280027  0.58197411     0.01700
H875        H  0.84965092  0.08616065  0.66918931     0.14700
H876        H  0.84381442  0.16517758  0.57895767     0.14700
C877        C  0.84875712  0.12146886  0.53850821     0.36400
C878        C  0.84907433  0.13015529  0.70949484     0.36300
N879        N  0.85021655  0.12056372  0.50367905    -0.44000
N880        N  0.85099002  0.13129276  0.74427975    -0.44000
C881        C  0.02986766  0.00827301  0.28230993    -0.00400
C882        C  0.03881058  0.03161170  0.30307904    -0.12300
C883        C  0.06988401  0.03298477  0.32941472     0.01800
C884        C  0.09413571  0.01092415  0.33473284    -0.00500
C885        C  0.08410806  0.98700763  0.31613374    -0.12200
C886        C  0.05196135  0.98539073  0.29061766     0.01700
H887        H  0.02095133  0.04900093  0.29936725     0.14700
H888        H  0.10193874  0.96968852  0.32070384     0.14700
C889        C  0.04274384  0.96015377  0.27328420     0.36400
C890        C  0.07532081  0.05708621  0.35172314     0.36300
N891        N  0.03522929  0.93979871  0.25982599    -0.44000
N892        N  0.07957697  0.07626697  0.36986289    -0.44000
C893        C  0.19297776  0.90267490  0.39664563    -0.00400
C894        C  0.19607734  0.89913991  0.35487849    -0.12300
C895        C  0.19722108  0.87384606  0.33814908     0.01800
C896        C  0.19508244  0.85097764  0.36340690    -0.00500
C897        C  0.19169516  0.85452256  0.40523186    -0.12200
C898        C  0.19069527  0.87987537  0.42196079     0.01700
H899        H  0.19778621  0.91629791  0.33497999     0.14700
H900        H  0.18980662  0.83738625  0.42514738     0.14700
C901        C  0.18611994  0.88163347  0.46514899     0.36400
C902        C  0.19970491  0.87233582  0.29474767     0.36300
N903        N  0.18245371  0.88285691  0.49977164    -0.44000
N904        N  0.20174920  0.87122732  0.25996855    -0.44000
C905        C  0.14351178  0.74614481  0.08647565    -0.00400
C906        C  0.11845320  0.73331308  0.11343205    -0.12300
C907        C  0.12378055  0.73510817  0.15526392     0.01800
C908        C  0.15490062  0.74982000  0.17030683    -0.00500
C909        C  0.18115685  0.76116196  0.14284111    -0.12200
C910        C  0.17543274  0.75973534  0.10135287     0.01700
H911        H  0.09324353  0.72345752  0.10183777     0.14700
H912        H  0.20577605  0.77198720  0.15380885     0.14700
C913        C  0.20147992  0.77362470  0.07463851     0.36400
C914        C  0.09522343  0.72368319  0.18167165     0.36300
N915        N  0.22223279  0.78485499  0.05326550    -0.44000
N916        N  0.07208113  0.71462151  0.20266087    -0.44000
C917        C  0.04989933  0.00344854  0.96818270    -0.00400
C918        C  0.04975805  0.02403112  0.99641772    -0.12300
C919        C  0.03106546  0.02129133  0.03365818     0.01800
C920        C  0.01198429  0.99741174  0.04349103    -0.00500
C921        C  0.01268575  0.97674614  0.01545860    -0.12200
C922        C  0.03113088  0.97949527  0.97827095     0.01700
H923        H  0.06447771  0.04242573  0.98950922     0.14700
H924        H  0.99784056  0.95835929  0.02209710     0.14700
C925        C  0.02869765  0.95765742  0.95070082     0.36400
C926        C  0.03269938  0.04316958  0.06117550     0.36300
N927        N  0.02655622  0.94014627  0.92868566    -0.44000
N928        N  0.03413470  0.06080470  0.08302897    -0.44000
C929        C  0.00204004  0.99695802  0.73510905    -0.00400
C930        C  0.97278283  0.97853456  0.74256929    -0.12300
C931        C  0.94108077  0.97632265  0.71695018     0.01800
C932        C  0.93761676  0.99281086  0.68202476    -0.00500
C933        C  0.96571083  0.01247456  0.67588917    -0.12200
C934        C  0.99768931  0.01459886  0.70177963     0.01700
H935        H  0.97523449  0.96505786  0.76816781     0.14700
H936        H  0.96345174  0.02568470  0.64999049     0.14700
C937        C  0.02666313  0.03397975  0.69185063     0.36400
C938        C  0.91269736  0.95671239  0.72789720     0.36300
N939        N  0.04993620  0.04949309  0.68393472    -0.44000
N940        N  0.89021235  0.94088427  0.73686300    -0.44000
C941        C  0.12745689  0.00178919  0.66592952    -0.00400
C942        C  0.10157498  0.98823027  0.64102059    -0.12300
C943        C  0.10551804  0.98872107  0.59932480     0.01800
C944        C  0.13483005  0.00387312  0.58164668    -0.00500
C945        C  0.15850852  0.01948309  0.60593875    -0.12200
C946        C  0.15542237  0.01831147  0.64804309     0.01700
H947        H  0.07896749  0.97620172  0.65419383     0.14700
H948        H  0.18162003  0.03075884  0.59218875     0.14700
C949        C  0.18335293  0.03225143  0.67178197     0.36400
C950        C  0.08051331  0.97237880  0.57547400     0.36300
N951        N  0.20598190  0.04331565  0.69065976    -0.44000
N952        N  0.06064461  0.95911370  0.55648972    -0.44000
C953        C  0.09939491  0.90044471  0.86377230    -0.00400
C954        C  0.09854528  0.89624842  0.90566366    -0.12300
C955        C  0.09694133  0.87060956  0.92236303     0.01800
C956        C  0.09602011  0.84820316  0.89688136    -0.00500
C957        C  0.09847916  0.85246592  0.85504269    -0.12200
C958        C  0.10043659  0.87806033  0.83843539     0.01700
H959        H  0.09875329  0.91309421  0.92557669     0.14700
H960        H  0.09887068  0.83569568  0.83498400     0.14700
C961        C  0.10512258  0.88052182  0.79525693     0.36400
C962        C  0.09743450  0.86819003  0.96581939     0.36300
N963        N  0.10911973  0.88236713  0.76068239    -0.44000
N964        N  0.09798199  0.86645197  0.00065688    -0.44000
C965        C  0.68592680  0.24151827  0.82324904    -0.00400
C966        C  0.68588079  0.22727439  0.78704054    -0.12300
C967        C  0.71622087  0.22907388  0.75954956     0.01800
C968        C  0.74780471  0.24565911  0.76755938    -0.00500
C969        C  0.74698091  0.26110874  0.80258909    -0.12200
C970        C  0.71675341  0.25894201  0.83057277     0.01700
H971        H  0.66206959  0.21431002  0.78023105     0.14700
H972        H  0.77141168  0.27342554  0.80972775     0.14700
C973        C  0.71982464  0.27310381  0.86792930     0.36400
C974        C  0.71435710  0.21330187  0.72355629     0.36300
N975        N  0.72259503  0.28429997  0.89800779    -0.44000
N976        N  0.71292527  0.20058992  0.69481654    -0.44000
C977        C  0.59236102  0.39885399  0.86221850    -0.00400
C978        C  0.59601139  0.39443239  0.90384541    -0.12300
C979        C  0.59676177  0.36876608  0.92022488     0.01800
C980        C  0.59375630  0.34647178  0.89469457    -0.00500
C981        C  0.59075148  0.35090683  0.85295681    -0.12200
C982        C  0.59009906  0.37661554  0.83658647     0.01700
H983        H  0.59816562  0.41115418  0.92389384     0.14700
H984        H  0.58876815  0.33419640  0.83287728     0.14700
C985        C  0.58839031  0.37930658  0.79318957     0.36400
C986        C  0.60174345  0.36627339  0.96336248     0.36300
N987        N  0.58710541  0.38137078  0.75841004    -0.44000
N988        N  0.60574406  0.36453772  0.99794462    -0.44000
C989        C  0.75164880  0.24827824  0.46136104    -0.00400
C990        C  0.73976170  0.26928052  0.48561608    -0.12300
C991        C  0.75552754  0.27301775  0.52389109     0.01800
C992        C  0.78420132  0.25561186  0.53846255    -0.00500
C993        C  0.79670816  0.23501317  0.51376721    -0.12200
C994        C  0.78098347  0.23128796  0.47554427     0.01700
H995        H  0.71703977  0.28230246  0.47528511     0.14700
H996        H  0.81948005  0.22200399  0.52401856     0.14700
C997        C  0.79631851  0.21025034  0.45129447     0.36400
C998        C  0.74040105  0.29416749  0.54802860     0.36300
N999        N  0.80864788  0.19338238  0.43194342    -0.44000
N1000       N  0.72812169  0.31110472  0.56727307    -0.44000
C1001       C  0.78709852  0.25224957  0.23396705    -0.00400
C1002       C  0.78875153  0.23570921  0.20019211    -0.12300
C1003       C  0.81932040  0.23723574  0.17250248     0.01800
C1004       C  0.84917160  0.25581609  0.17816702    -0.00500
C1005       C  0.84877006  0.27080344  0.21370255    -0.12200
C1006       C  0.81860962  0.26896634  0.24152867     0.01700
H1007       H  0.76513340  0.22242598  0.19423697     0.14700
H1008       H  0.87233114  0.28409054  0.22000667     0.14700
C1009       C  0.82118800  0.28407506  0.27810547     0.36400
C1010       C  0.81816790  0.22026700  0.13786432     0.36300
N1011       N  0.82359884  0.29598682  0.30756801    -0.44000
N1012       N  0.81697132  0.20647359  0.11031124    -0.44000
C1013       C  0.65196788  0.24334663  0.16800928    -0.00400
C1014       C  0.68152955  0.23673743  0.14125531    -0.12300
C1015       C  0.67472415  0.23554984  0.09969901     0.01800
C1016       C  0.63801532  0.24166907  0.08490082    -0.00500
C1017       C  0.60811657  0.24672698  0.11208194    -0.12200
C1018       C  0.61478943  0.24759741  0.15341551     0.01700
H1019       H  0.71022225  0.23359647  0.15268990     0.14700
H1020       H  0.57978922  0.25144461  0.10074876     0.14700
C1021       C  0.58381461  0.25501376  0.17980565     0.36400
C1022       C  0.70621654  0.22995603  0.07295454     0.36300
N1023       N  0.55893538  0.26109197  0.20077001    -0.44000
N1024       N  0.73154600  0.22535941  0.05167612    -0.44000
C1025       C  0.64490372  0.49861711  0.58174017    -0.00400
C1026       C  0.66626616  0.51492110  0.60725709    -0.12300
C1027       C  0.66003905  0.51434433  0.64911147     0.01800
C1028       C  0.63247957  0.49677667  0.66558771    -0.00500
C1029       C  0.60945718  0.48205015  0.63916738    -0.12200
C1030       C  0.61544046  0.48286235  0.59773403     0.01700
H1031       H  0.68895119  0.52714811  0.59469405     0.14700
H1032       H  0.58675221  0.46948452  0.65086420     0.14700
C1033       C  0.59125679  0.46710135  0.57210653     0.36400
C1034       C  0.68310877  0.53117937  0.67417781     0.36300
N1035       N  0.57179672  0.45461508  0.55150314    -0.44000
N1036       N  0.70140180  0.54484330  0.69422112    -0.44000
C1037       C  0.68658338  0.40026869  0.38940833    -0.00400
C1038       C  0.68706993  0.39681785  0.34747836    -0.12300
C1039       C  0.68719127  0.37148875  0.33066639     0.01800
C1040       C  0.68711653  0.34862206  0.35605466    -0.00500
C1041       C  0.68494844  0.35217119  0.39795301    -0.12200
C1042       C  0.68440864  0.37748836  0.41468601     0.01700
H1043       H  0.68784625  0.41401371  0.32759425     0.14700
H1044       H  0.68388762  0.33505784  0.41797743     0.14700
C1045       C  0.68026021  0.37929435  0.45791634     0.36400
C1046       C  0.68650982  0.36989034  0.28720209     0.36300
N1047       N  0.67673762  0.38062140  0.49254166    -0.44000
N1048       N  0.68586508  0.36879120  0.25236160    -0.44000
C1049       C  0.90412259  0.84903440  0.53902261    -0.00400
C1050       C  0.86502282  0.85519601  0.53649917    -0.12300
C1051       C  0.85254074  0.88156016  0.53662593     0.01800
C1052       C  0.87950458  0.90215819  0.53997187    -0.00500
C1053       C  0.91866786  0.89606154  0.53900866    -0.12200
C1054       C  0.93114704  0.86972879  0.53816141     0.01700
H1055       H  0.84410772  0.83933947  0.53733262     0.14700
H1056       H  0.93952567  0.91184099  0.54165240     0.14700
C1057       C  0.97166145  0.86442241  0.54043018     0.36400
C1058       C  0.81195609  0.88675451  0.53737587     0.36300
N1059       N  0.00416944  0.86026492  0.54223343    -0.44000
N1060       N  0.77934455  0.89063721  0.53800724    -0.44000
C1061       C  0.99753339  0.75580701  0.71828666    -0.00400
C1062       C  0.01336401  0.73091656  0.72700421    -0.12300
C1063       C  0.03097167  0.72552200  0.76399926     0.01800
C1064       C  0.03329680  0.74543923  0.79367514    -0.00500
C1065       C  0.01720666  0.77029884  0.78514268    -0.12200
C1066       C  0.99909828  0.77557681  0.74824788     0.01700
H1067       H  0.01232828  0.71548462  0.70460133     0.14700
H1068       H  0.01828653  0.78566185  0.80764966     0.14700
C1069       C  0.98115653  0.80112572  0.74310669     0.36400
C1070       C  0.04724654  0.69947783  0.76962321     0.36300
N1071       N  0.96670861  0.82159422  0.73935671    -0.44000
N1072       N  0.06006449  0.67853173  0.77384242    -0.44000
C1073       C  0.03911894  0.74962247  0.48713941    -0.00400
C1074       C  0.06859354  0.73163950  0.49608174    -0.12300
C1075       C  0.10106267  0.72960708  0.47156958     0.01800
C1076       C  0.10438214  0.74525277  0.43583331    -0.00500
C1077       C  0.07634922  0.76472355  0.42854638    -0.12200
C1078       C  0.04420935  0.76722435  0.45397091     0.01700
H1079       H  0.06588197  0.71855228  0.52212113     0.14700
H1080       H  0.07895784  0.77762643  0.40232078     0.14700
C1081       C  0.01633530  0.78734384  0.44426788     0.36400
C1082       C  0.13071795  0.71156908  0.48479527     0.36300
N1083       N  0.99418715  0.80365277  0.43665332    -0.44000
N1084       N  0.15443946  0.69723146  0.49575362    -0.44000
C1085       C  0.91345484  0.39899010  0.71690217    -0.00400
C1086       C  0.93779401  0.37997727  0.70056056    -0.12300
C1087       C  0.92642113  0.35352900  0.69796612     0.01800
C1088       C  0.88998413  0.34551318  0.71244124    -0.00500
C1089       C  0.86732568  0.36403825  0.73279173    -0.12200
C1090       C  0.87862404  0.39076011  0.73464193     0.01700
H1091       H  0.96444114  0.38622956  0.68657203     0.14700
H1092       H  0.83935074  0.35822398  0.74394228     0.14700
C1093       C  0.85261738  0.40982451  0.75149207     0.36400
C1094       C  0.95164950  0.33545862  0.67747439     0.36300
N1095       N  0.83184155  0.42520476  0.76489376    -0.44000
N1096       N  0.97170178  0.32111582  0.66063935    -0.44000
C1097       C  0.78490239  0.49262893  0.52039493    -0.00400
C1098       C  0.78617497  0.50901163  0.55444568    -0.12300
C1099       C  0.81730612  0.50817464  0.58148877     0.01800
C1100       C  0.84809461  0.49064182  0.57471798    -0.00500
C1101       C  0.84742526  0.47520358  0.53969829    -0.12200
C1102       C  0.81656224  0.47607369  0.51276897     0.01700
H1103       H  0.76186618  0.52153156  0.56113556     0.14700
H1104       H  0.87131599  0.46225273  0.53317991     0.14700
C1105       C  0.81847242  0.45987437  0.47727029     0.36400
C1106       C  0.81581461  0.52436590  0.61698610     0.36300
N1107       N  0.82044356  0.44688932  0.44885954    -0.44000
N1108       N  0.81457758  0.53733211  0.64546610    -0.44000
C1109       C  0.94758864  0.65118068  0.61310064    -0.00400
C1110       C  0.93836702  0.64599219  0.65371116    -0.12300
C1111       C  0.93680257  0.61999825  0.66919470     0.01800
C1112       C  0.94396304  0.59817935  0.64380860    -0.00500
C1113       C  0.95322554  0.60321980  0.60336954    -0.12200
C1114       C  0.95570608  0.62915238  0.58799630     0.01700
H1115       H  0.93212454  0.66229417  0.67359108     0.14700
H1116       H  0.95933977  0.58675725  0.58371650     0.14700
C1117       C  0.96700732  0.63205942  0.54623814     0.36400
C1118       C  0.92649666  0.61636088  0.71108828     0.36300
N1119       N  0.97634463  0.63426713  0.51286186    -0.44000
N1120       N  0.91831009  0.61343493  0.74467707    -0.44000
C1121       C  0.89095725  0.40448557  0.03848796    -0.00400
C1122       C  0.86390365  0.38526565  0.02789249    -0.12300
C1123       C  0.87377766  0.35829593  0.02772795     0.01800
C1124       C  0.91137317  0.35030714  0.03758108    -0.00500
C1125       C  0.93919402  0.36971176  0.04437967    -0.12200
C1126       C  0.92931241  0.39660116  0.04493905     0.01700
H1127       H  0.83437975  0.39105373  0.02303232     0.14700
H1128       H  0.96812024  0.36375224  0.05206177     0.14700
C1129       C  0.95867534  0.41573312  0.05404462     0.36400
C1130       C  0.84436417  0.33899097  0.01991794     0.36300
N1131       N  0.98216298  0.43111151  0.06121389    -0.44000
N1132       N  0.82083856  0.32348160  0.01358267    -0.44000
C1133       C  0.78829893  0.49374177  0.21405467    -0.00400
C1134       C  0.77108892  0.51837143  0.22081719    -0.12300
C1135       C  0.75034235  0.52316337  0.25605695     0.01800
C1136       C  0.74673125  0.50305284  0.28602262    -0.00500
C1137       C  0.76352263  0.47832347  0.27903884    -0.12200
C1138       C  0.78429004  0.47354197  0.24377596     0.01700
H1139       H  0.77345975  0.53399138  0.19821354     0.14700
H1140       H  0.76120583  0.46273048  0.30168369     0.14700
C1141       C  0.80243499  0.44804081  0.24008061     0.36400
C1142       C  0.73226009  0.54871316  0.25972384     0.36300
N1143       N  0.81698879  0.42759771  0.23731886    -0.44000
N1144       N  0.71781641  0.56919403  0.26253932    -0.44000
C1145       C  0.75061993  0.50221396  0.98529519    -0.00400
C1146       C  0.75131389  0.48645228  0.95048220    -0.12300
C1147       C  0.72092617  0.48692216  0.92248286     0.01800
C1148       C  0.68905697  0.50353313  0.92900407    -0.00500
C1149       C  0.68756687  0.51787287  0.96515118    -0.12200
C1150       C  0.71758331  0.51730283  0.99302445     0.01700
H1151       H  0.77661886  0.47488649  0.94387084     0.14700
H1152       H  0.66274119  0.52994312  0.97170021     0.14700
C1153       C  0.71365762  0.53250913  0.02938077     0.36400
C1154       C  0.72427018  0.47133699  0.88651013     0.36300
N1155       N  0.71047503  0.54464963  0.05853908    -0.44000
N1156       N  0.72707384  0.45875546  0.85774908    -0.44000
C1157       C  0.87310776  0.50222390  0.91567699    -0.00400
C1158       C  0.89950713  0.48408764  0.90021242    -0.12300
C1159       C  0.90477293  0.48177245  0.85849144     0.01800
C1160       C  0.88367252  0.49801421  0.83162335    -0.00500
C1161       C  0.85516760  0.51445109  0.84679494    -0.12200
C1162       C  0.84910962  0.51636000  0.88820889     0.01700
H1163       H  0.91717470  0.47248762  0.92065527     0.14700
H1164       H  0.83848959  0.52663182  0.82614120     0.14700
C1165       C  0.81807029  0.53319535  0.90106283     0.36400
C1166       C  0.93380810  0.46391604  0.84424338     0.36300
N1167       N  0.79321136  0.54669334  0.91118657    -0.44000
N1168       N  0.95685137  0.44935407  0.83299769    -0.44000
C1169       C  0.89146933  0.84655640  0.21674455    -0.00400
C1170       C  0.86502655  0.86646940  0.22585534    -0.12300
C1171       C  0.87622459  0.89317012  0.22577565     0.01800
C1172       C  0.91447387  0.90012739  0.21696567    -0.00500
C1173       C  0.94159496  0.88004488  0.21200927    -0.12200
C1174       C  0.93042052  0.85340458  0.21187663     0.01700
H1175       H  0.83507847  0.86140418  0.22969796     0.14700
H1176       H  0.97105263  0.88525530  0.20529986     0.14700
C1177       C  0.95915178  0.83347643  0.20487783     0.36400
C1178       C  0.84755013  0.91322661  0.23205416     0.36300
N1179       N  0.98228589  0.81754375  0.19951367    -0.44000
N1180       N  0.82457890  0.92929764  0.23722815    -0.44000
C1181       C  0.93635392  0.75357806  0.07720458    -0.00400
C1182       C  0.93887245  0.76985269  0.04258197    -0.12300
C1183       C  0.97033645  0.76892348  0.01668049     0.01800
C1184       C  0.00099555  0.75152006  0.02500747    -0.00500
C1185       C  0.99736749  0.73364721  0.05778139    -0.12200
C1186       C  0.96526938  0.73437564  0.08365824     0.01700
H1187       H  0.91618555  0.78383273  0.03578575     0.14700
H1188       H  0.02052806  0.72003429  0.06449462     0.14700
C1189       C  0.96364432  0.71599102  0.11727514     0.36400
C1190       C  0.97037664  0.78640758  0.98186897     0.36300
N1191       N  0.96225191  0.70110011  0.14403981    -0.44000
N1192       N  0.97013119  0.80049092  0.95408510    -0.44000
C1193       C  0.88903462  0.75246114  0.33698881    -0.00400
C1194       C  0.85923735  0.75647181  0.36461901    -0.12300
C1195       C  0.86657043  0.75768746  0.40598254     0.01800
C1196       C  0.90414123  0.75379957  0.42003376    -0.00500
C1197       C  0.93417552  0.75100044  0.39220482    -0.12200
C1198       C  0.92697642  0.75065165  0.35077756     0.01700
H1199       H  0.82999855  0.75772845  0.35390789     0.14700
H1200       H  0.96318949  0.74811015  0.40301038     0.14700
C1201       C  0.95852991  0.74660724  0.32341541     0.36400
C1202       C  0.83485549  0.76115701  0.43329935     0.36300
N1203       N  0.98400754  0.74338656  0.30172225    -0.44000
N1204       N  0.80927364  0.76408593  0.45495314    -0.44000
C1205       C  0.83788597  0.65139210  0.14660928    -0.00400
C1206       C  0.84579487  0.62978446  0.17248066    -0.12300
C1207       C  0.84750624  0.60380411  0.15815702     0.01800
C1208       C  0.84038063  0.59873630  0.11692356    -0.00500
C1209       C  0.83203813  0.62041514  0.09121407    -0.12200
C1210       C  0.83095266  0.64639232  0.10542731     0.01700
H1211       H  0.85158805  0.63323065  0.20411559     0.14700
H1212       H  0.82664509  0.61720506  0.05944827     0.14700
C1213       C  0.82198099  0.66732676  0.07694354     0.36400
C1214       C  0.85687763  0.58299395  0.18669635     0.36300
N1215       N  0.81489729  0.68395142  0.05383864    -0.44000
N1216       N  0.86461800  0.56641961  0.20965893    -0.44000
C1217       C  0.63310769  0.59545455  0.78730744    -0.00400
C1218       C  0.67119611  0.60297264  0.77988976    -0.12300
C1219       C  0.68216203  0.62969177  0.78118606     0.01800
C1220       C  0.65508570  0.64902376  0.79187692    -0.00500
C1221       C  0.61649336  0.64166048  0.79596359    -0.12200
C1222       C  0.60529179  0.61514364  0.79310893     0.01700
H1223       H  0.69273205  0.58786225  0.77542345     0.14700
H1224       H  0.59536488  0.65647989  0.80339397     0.14700
C1225       C  0.56562378  0.60821159  0.79949890     0.36400
C1226       C  0.72176074  0.63660816  0.77460583     0.36300
N1227       N  0.53392749  0.60235927  0.80438284    -0.44000
N1228       N  0.75338043  0.64238201  0.76900837    -0.44000
C1229       C  0.74651866  0.74569566  0.96997950    -0.00400
C1230       C  0.77318951  0.76638508  0.97250243    -0.12300
C1231       C  0.79214151  0.77169284  0.00875136     0.01800
C1232       C  0.78449028  0.75609519  0.04359200    -0.00500
C1233       C  0.75753145  0.73563430  0.04119112    -0.12200
C1234       C  0.73831042  0.73049849  0.00508933     0.01700
H1235       H  0.77971726  0.77823002  0.94586545     0.14700
H1236       H  0.75105346  0.72380052  0.06785464     0.14700
C1237       C  0.70895699  0.71038383  0.00563590     0.36400
C1238       C  0.82042216  0.79254083  0.00872015     0.36300
N1239       N  0.68525337  0.69439551  0.00618634    -0.44000
N1240       N  0.84302825  0.80927480  0.00853504    -0.44000
C1241       C  0.78702572  0.75206860  0.73776294    -0.00400
C1242       C  0.79080462  0.73385019  0.70613475    -0.12300
C1243       C  0.82143849  0.73551522  0.67834811     0.01800
C1244       C  0.84932584  0.75567944  0.68194426    -0.00500
C1245       C  0.84663830  0.77268509  0.71515283    -0.12200
C1246       C  0.81629961  0.77111872  0.74264422     0.01700
H1247       H  0.76861211  0.71919484  0.70162379     0.14700
H1248       H  0.86833166  0.78770546  0.71968153     0.14700
C1249       C  0.81575814  0.78989524  0.77516230     0.36400
C1250       C  0.82227601  0.71722511  0.64532924     0.36300
N1251       N  0.81521962  0.80508813  0.80096737    -0.44000
N1252       N  0.82299697  0.70261314  0.61876382    -0.44000
C1253       C  0.66054104  0.09496710  0.96941753    -0.00400
C1254       C  0.68695193  0.11478267  0.95910233    -0.12300
C1255       C  0.67584664  0.14139105  0.95688934     0.01800
C1256       C  0.63765020  0.14865702  0.96526857    -0.00500
C1257       C  0.61216956  0.12914985  0.97953645    -0.12200
C1258       C  0.62328800  0.10236977  0.98130759     0.01700
H1259       H  0.71552541  0.10925804  0.94960798     0.14700
H1260       H  0.58277401  0.13446005  0.98602346     0.14700
C1261       C  0.59532585  0.08254895  0.99242016     0.36400
C1262       C  0.70357151  0.16081861  0.94353623     0.36300
N1263       N  0.57307641  0.06655134  0.00133816    -0.44000
N1264       N  0.72556065  0.17650574  0.93276198    -0.44000
C1265       C  0.75400867  0.00618924  0.79046326    -0.00400
C1266       C  0.75013958  0.02574411  0.76016302    -0.12300
C1267       C  0.76672599  0.02262161  0.72197587     0.01800
C1268       C  0.78806537  0.99959883  0.71369405    -0.00500
C1269       C  0.79241408  0.98032999  0.74430052    -0.12200
C1270       C  0.77582069  0.98340154  0.78228183     0.01700
H1271       H  0.73325977  0.04326170  0.76596423     0.14700
H1272       H  0.80946765  0.96283380  0.73878363     0.14700
C1273       C  0.78290618  0.96324638  0.81263854     0.36400
C1274       C  0.75989499  0.04276678  0.69156165     0.36300
N1275       N  0.78868240  0.94711902  0.83695116    -0.44000
N1276       N  0.75418347  0.05893211  0.66728441    -0.44000
C1277       C  0.79060870  0.99312746  0.02274871    -0.00400
C1278       C  0.82222596  0.97763715  0.01202054    -0.12300
C1279       C  0.85511664  0.97644029  0.03615300     0.01800
C1280       C  0.85698365  0.99067273  0.07268228    -0.00500
C1281       C  0.82616981  0.00731338  0.08243007    -0.12200
C1282       C  0.79313980  0.00853815  0.05806138     0.01700
H1283       H  0.82093923  0.96590086  0.98489335     0.14700
H1284       H  0.82718716  0.01857427  0.11002152     0.14700
C1285       C  0.76125224  0.02424266  0.07163088     0.36400
C1286       C  0.88675619  0.96063140  0.02214492     0.36300
N1287       N  0.73560692  0.03675349  0.08247868    -0.44000
N1288       N  0.91212391  0.94800067  0.01091787    -0.44000
C1289       C  0.69885395  0.90008764  0.88724612    -0.00400
C1290       C  0.70165361  0.87859783  0.91455318    -0.12300
C1291       C  0.69980035  0.85236543  0.90164788     0.01800
C1292       C  0.69542313  0.84693538  0.86016346    -0.00500
C1293       C  0.69277570  0.86844879  0.83281536    -0.12200
C1294       C  0.69423857  0.89470126  0.84581625     0.01700
H1295       H  0.70484726  0.88223885  0.94654154     0.14700
H1296       H  0.68923690  0.86483505  0.80086498     0.14700
C1297       C  0.69154887  0.91547856  0.81565929     0.36400
C1298       C  0.70289338  0.83167198  0.93192218     0.36300
N1299       N  0.68930108  0.93195347  0.79122365    -0.44000
N1300       N  0.70521552  0.81524247  0.95642082    -0.44000
C1301       C  0.63051047  0.64882411  0.46982072    -0.00400
C1302       C  0.60317594  0.62897269  0.46410489    -0.12300
C1303       C  0.61414429  0.60238039  0.46235056     0.01800
C1304       C  0.65308225  0.59536076  0.46621112    -0.00500
C1305       C  0.67975167  0.61488398  0.47660158    -0.12200
C1306       C  0.66869907  0.64158091  0.47831245     0.01700
H1307       H  0.57374060  0.63439923  0.45780774     0.14700
H1308       H  0.70966295  0.60963941  0.48001666     0.14700
C1309       C  0.69731043  0.66142008  0.48639351     0.36400
C1310       C  0.58531408  0.58268649  0.45418572     0.36300
N1311       N  0.72012193  0.67735632  0.49314839    -0.44000
N1312       N  0.56236520  0.56679221  0.44772532    -0.44000
C1313       C  0.68585553  0.74409785  0.32631159    -0.00400
C1314       C  0.71285279  0.76451959  0.33152542    -0.12300
C1315       C  0.74499450  0.76715506  0.30573010     0.01800
C1316       C  0.75075483  0.74898717  0.27399491    -0.00500
C1317       C  0.72187784  0.73033880  0.26682220    -0.12200
C1318       C  0.68996931  0.72779391  0.29203056     0.01700
H1319       H  0.70959172  0.77792369  0.35655124     0.14700
H1320       H  0.72482751  0.71683778  0.24184241     0.14700
C1321       C  0.66195860  0.70805042  0.28136014     0.36400
C1322       C  0.77206350  0.78802823  0.31355580     0.36300
N1323       N  0.63971303  0.69215519  0.27266233    -0.44000
N1324       N  0.79356888  0.80489714  0.31982643    -0.44000
C1325       C  0.63892646  0.73975080  0.58956257    -0.00400
C1326       C  0.60824352  0.73950254  0.61691252    -0.12300
C1327       C  0.61478636  0.73967393  0.65840749     0.01800
C1328       C  0.65261491  0.74049931  0.67267607    -0.00500
C1329       C  0.68329040  0.73893137  0.64544838    -0.12200
C1330       C  0.67670421  0.73828454  0.60392296     0.01700
H1331       H  0.57914465  0.74076286  0.60574184     0.14700
H1332       H  0.71244597  0.73954095  0.65661369     0.14700
C1333       C  0.70902727  0.73848943  0.57678540     0.36400
C1334       C  0.58244268  0.74147279  0.68535891     0.36300
N1335       N  0.73500547  0.73864904  0.55512911    -0.44000
N1336       N  0.55640023  0.74296954  0.70677590    -0.44000
C1337       C  0.62615874  0.09765613  0.28916121    -0.00400
C1338       C  0.66472395  0.10384374  0.28126628    -0.12300
C1339       C  0.67784284  0.13018680  0.28174851     0.01800
C1340       C  0.65238341  0.15078706  0.29143782    -0.00500
C1341       C  0.61341040  0.14474736  0.29667322    -0.12200
C1342       C  0.60014643  0.11854490  0.29513166     0.01700
H1343       H  0.68512438  0.08792635  0.27741177     0.14700
H1344       H  0.59357303  0.16042463  0.30416735     0.14700
C1345       C  0.56017928  0.11335445  0.30287796     0.36400
C1346       C  0.71808610  0.13534465  0.27585772     0.36300
N1347       N  0.52809644  0.10923289  0.30889454    -0.44000
N1348       N  0.75031966  0.13956362  0.27102131    -0.44000
C1349       C  0.69337207  0.00781537  0.42246502    -0.00400
C1350       C  0.70012366  0.98607202  0.44845289    -0.12300
C1351       C  0.73163880  0.98579067  0.47502946     0.01800
C1352       C  0.75692811  0.00759144  0.47590810    -0.00500
C1353       C  0.75072633  0.02875148  0.44873441    -0.12200
C1354       C  0.71964720  0.02900346  0.42223952     0.01700
H1355       H  0.67988050  0.96981149  0.44923659     0.14700
H1356       H  0.77064151  0.04521309  0.44777384     0.14700
C1357       C  0.71574625  0.05115203  0.39455217     0.36400
C1358       C  0.73615746  0.96368341  0.50250638     0.36300
N1359       N  0.71269691  0.06885661  0.37232416    -0.44000
N1360       N  0.73968930  0.94603238  0.52473115    -0.44000
C1361       C  0.64100826  0.99513593  0.17190759    -0.00400
C1362       C  0.66521254  0.97527729  0.15791305    -0.12300
C1363       C  0.67374629  0.97301985  0.11701888     0.01800
C1364       C  0.65707380  0.99077013  0.08832851    -0.00500
C1365       C  0.63375094  0.01132542  0.10270908    -0.12200
C1366       C  0.62571170  0.01363180  0.14412377     0.01700
H1367       H  0.67707620  0.96102261  0.17923429     0.14700
H1368       H  0.62113952  0.02533389  0.08157587     0.14700
C1369       C  0.60022231  0.03425250  0.15717544     0.36400
C1370       C  0.70017442  0.95227142  0.10624556     0.36300
N1371       N  0.57992332  0.05082900  0.16780810    -0.44000
N1372       N  0.72137024  0.93562551  0.09794217    -0.44000
C1373       C  0.59717156  0.84769162  0.40016308    -0.00400
C1374       C  0.57729716  0.85254025  0.36419272    -0.12300
C1375       C  0.57469986  0.87809472  0.34762948     0.01800
C1376       C  0.59231660  0.89974263  0.36736674    -0.00500
C1377       C  0.61257825  0.89464554  0.40329022    -0.12200
C1378       C  0.61530774  0.86902313  0.41958228     0.01700
H1379       H  0.56310547  0.83629608  0.34924803     0.14700
H1380       H  0.62696571  0.91066657  0.41856096     0.14700
C1381       C  0.63842770  0.86504352  0.45525820     0.36400
C1382       C  0.55359061  0.88107492  0.31041502     0.36300
N1383       N  0.65714969  0.86186243  0.48368611    -0.44000
N1384       N  0.53670145  0.88321263  0.28053680    -0.44000
C1385       C  0.54016523  0.00060276  0.47000266    -0.00400
C1386       C  0.51892088  0.97726180  0.47547150    -0.12300
C1387       C  0.49886973  0.97226014  0.51134753     0.01800
C1388       C  0.50002206  0.99087929  0.54291546    -0.00500
C1389       C  0.52219149  0.01380783  0.53782222    -0.12200
C1390       C  0.54234121  0.01872514  0.50208162     0.01700
H1391       H  0.51718192  0.96311549  0.45121730     0.14700
H1392       H  0.52416788  0.02790342  0.56212360     0.14700
C1393       C  0.56617494  0.04204251  0.50003065     0.36400
C1394       C  0.47618958  0.94839607  0.51391231     0.36300
N1395       N  0.58534707  0.06069644  0.49864836    -0.44000
N1396       N  0.45810820  0.92923302  0.51568899    -0.44000
C1397       C  0.60369080  0.00646093  0.82394412    -0.00400
C1398       C  0.57499859  0.98754228  0.83168771    -0.12300
C1399       C  0.54312614  0.98499785  0.80595049     0.01800
C1400       C  0.53937274  0.00159578  0.77134749    -0.00500
C1401       C  0.56920674  0.01932703  0.76242991    -0.12200
C1402       C  0.60105240  0.02175779  0.78779677     0.01700
H1403       H  0.57678481  0.97524380  0.85864914     0.14700
H1404       H  0.56722675  0.03194150  0.73579502     0.14700
C1405       C  0.63070618  0.04002609  0.77524975     0.36400
C1406       C  0.51377394  0.96622343  0.81722887     0.36300
N1407       N  0.65430939  0.05469823  0.76498275    -0.44000
N1408       N  0.49025386  0.95114970  0.82624536    -0.44000
C1409       C  0.34256498  0.99023510  0.58686436    -0.00400
C1410       C  0.33326337  0.01364019  0.56546185    -0.12300
C1411       C  0.30098092  0.01488766  0.53971523     0.01800
C1412       C  0.27707728  0.99245051  0.53523414    -0.00500
C1413       C  0.28604072  0.96955621  0.55796929    -0.12200
C1414       C  0.31793086  0.96822365  0.58317708     0.01700
H1415       H  0.35201388  0.03065338  0.56761801     0.14700
H1416       H  0.26787776  0.95220991  0.55637294     0.14700
C1417       C  0.32432865  0.94371275  0.60508409     0.36400
C1418       C  0.29399272  0.03901817  0.51730093     0.36300
N1419       N  0.32938770  0.92396552  0.62227696    -0.44000
N1420       N  0.28836283  0.05829816  0.49911425    -0.44000
C1421       C  0.50379981  0.25177380  0.71284750    -0.00400
C1422       C  0.49209323  0.23056023  0.73746746    -0.12300
C1423       C  0.50708432  0.22684267  0.77617097     0.01800
C1424       C  0.53506153  0.24446001  0.79089764    -0.00500
C1425       C  0.54681627  0.26579103  0.76629563    -0.12200
C1426       C  0.53153647  0.26958885  0.72761863     0.01700
H1427       H  0.47003416  0.21734985  0.72698172     0.14700
H1428       H  0.56874370  0.27920767  0.77689542     0.14700
C1429       C  0.54567534  0.29148842  0.70347160     0.36400
C1430       C  0.49186256  0.20544263  0.80058359     0.36300
N1431       N  0.55704113  0.30906314  0.68422588    -0.44000
N1432       N  0.47940632  0.18832689  0.82002478    -0.44000
C1433       C  0.52844798  0.24047155  0.47268119    -0.00400
C1434       C  0.54101804  0.21681039  0.45502728    -0.12300
C1435       C  0.57319178  0.21590421  0.43008442     0.01800
C1436       C  0.59455842  0.23910919  0.42175707    -0.00500
C1437       C  0.58207025  0.26300584  0.43872589    -0.12200
C1438       C  0.54955911  0.26387057  0.46411017     0.01700
H1439       H  0.52533762  0.19857079  0.46018351     0.14700
H1440       H  0.59838932  0.28092713  0.43314075     0.14700
C1441       C  0.53934050  0.28886754  0.48161444     0.36400
C1442       C  0.58291886  0.19065614  0.41284104     0.36300
N1443       N  0.53125416  0.30890046  0.49578260    -0.44000
N1444       N  0.59056104  0.17034468  0.39932408    -0.44000
C1445       C  0.44225138  0.14991799  0.61201708    -0.00400
C1446       C  0.44729780  0.12851902  0.58554196    -0.12300
C1447       C  0.44803785  0.10218195  0.59958278     0.01800
C1448       C  0.44411811  0.09658045  0.64122247    -0.00500
C1449       C  0.43895517  0.11785367  0.66760250    -0.12200
C1450       C  0.43763123  0.14408905  0.65363023     0.01700
H1451       H  0.45056291  0.13225052  0.55345258     0.14700
H1452       H  0.43522016  0.11398526  0.69962384     0.14700
C1453       C  0.43067058  0.16424065  0.68312836     0.36400
C1454       C  0.45375688  0.08148949  0.57058069     0.36300
N1455       N  0.42452354  0.18001632  0.70722406    -0.44000
N1456       N  0.45826005  0.06493773  0.54727346    -0.44000
C1457       C  0.24823791  0.00440385  0.28955911    -0.00400
C1458       C  0.23345794  0.98496070  0.26406237    -0.12300
C1459       C  0.24800605  0.98171399  0.22508438     0.01800
C1460       C  0.27845005  0.99787281  0.21123196    -0.00500
C1461       C  0.29274174  0.01760634  0.23653244    -0.12200
C1462       C  0.27806008  0.02095560  0.27535855     0.01700
H1463       H  0.20973549  0.97272897  0.27422615     0.14700
H1464       H  0.31652738  0.02984305  0.22655079     0.14700
C1465       C  0.29530663  0.04078058  0.30053659     0.36400
C1466       C  0.23019694  0.96234726  0.19952429     0.36300
N1467       N  0.30923228  0.05664135  0.32066342    -0.44000
N1468       N  0.21567171  0.94692478  0.17907219    -0.44000
C1469       C  0.43229958  0.99190665  0.18590325    -0.00400
C1470       C  0.43588448  0.97420721  0.21884036    -0.12300
C1471       C  0.46751078  0.97495230  0.24471796     0.01800
C1472       C  0.49715019  0.99350603  0.23788607    -0.00500
C1473       C  0.49244167  0.01247064  0.20695826    -0.12200
C1474       C  0.46048030  0.01193918  0.18116048     0.01700
H1475       H  0.41398168  0.95940439  0.22440207     0.14700
H1476       H  0.51479716  0.02693833  0.20151388     0.14700
C1477       C  0.45841454  0.03166100  0.14937787     0.36400
C1478       C  0.46866771  0.95643906  0.27827158     0.36300
N1479       N  0.45677986  0.04758464  0.12405476    -0.44000
N1480       N  0.46941596  0.94168410  0.30523381    -0.44000
C1481       C  0.26384918  0.00426214  0.97369826    -0.00400
C1482       C  0.26048336  0.02499949  0.94533775    -0.12300
C1483       C  0.23043120  0.02591698  0.91769801     0.01800
C1484       C  0.20252670  0.00576435  0.91785297    -0.00500
C1485       C  0.20682848  0.98416266  0.94473854    -0.12200
C1486       C  0.23727462  0.98325908  0.97260631     0.01700
H1487       H  0.28156198  0.04076806  0.94477423     0.14700
H1488       H  0.18527792  0.96872629  0.94547421     0.14700
C1489       C  0.23918398  0.96162421  0.00133518     0.36400
C1490       C  0.22896385  0.04791180  0.88951277     0.36300
N1491       N  0.24064717  0.94436176  0.02453628    -0.44000
N1492       N  0.22813430  0.06561645  0.86708038    -0.44000
C1493       C  0.41075146  0.99538976  0.84082529    -0.00400
C1494       C  0.43929442  0.00368101  0.86782107    -0.12300
C1495       C  0.43348927  0.00233020  0.90945782     0.01800
C1496       C  0.39896697  0.99212221  0.92470543    -0.00500
C1497       C  0.37123444  0.98243410  0.89806345    -0.12200
C1498       C  0.37684000  0.98397820  0.85623902     0.01700
H1499       H  0.46566735  0.01224050  0.85632604     0.14700
H1500       H  0.34406059  0.97540491  0.90988766     0.14700
C1501       C  0.34599978  0.97619907  0.82996336     0.36400
C1502       C  0.46187556  0.01347843  0.93595929     0.36300
N1503       N  0.32134058  0.97018936  0.80867409    -0.44000
N1504       N  0.48427581  0.02254667  0.95744163    -0.44000
C1505       C  0.44038237  0.25177035  0.07727632    -0.00400
C1506       C  0.43963775  0.26452826  0.03926188    -0.12300
C1507       C  0.47055247  0.26309442  0.01246877     0.01800
C1508       C  0.50364105  0.24870326  0.02322703    -0.00500
C1509       C  0.50364475  0.23448594  0.06006124    -0.12200
C1510       C  0.47246472  0.23589343  0.08704214     0.01700
H1511       H  0.41472377  0.27599118  0.03042648     0.14700
H1512       H  0.52893179  0.22342593  0.06883999     0.14700
C1513       C  0.47529346  0.22223907  0.12539033     0.36400
C1514       C  0.46751863  0.27654871  0.97390192     0.36300
N1515       N  0.47777725  0.21126210  0.15611704    -0.44000
N1516       N  0.46500482  0.28721359  0.94292626    -0.44000
C1517       C  0.37288366  0.25192737  0.33999670    -0.00400
C1518       C  0.34801796  0.23820346  0.36648560    -0.12300
C1519       C  0.35324791  0.23882410  0.40806336     0.01800
C1520       C  0.38337522  0.25370798  0.42399303    -0.00500
C1521       C  0.40554515  0.26984169  0.39835115    -0.12200
C1522       C  0.40052197  0.26914334  0.35641092     0.01700
H1523       H  0.32515438  0.22601867  0.35471435     0.14700
H1524       H  0.42870420  0.28144159  0.41086262     0.14700
C1525       C  0.42562478  0.28496218  0.33133443     0.36400
C1526       C  0.32835883  0.22323256  0.43383086     0.36300
N1527       N  0.44578117  0.29779621  0.31146691    -0.44000
N1528       N  0.30847590  0.21082088  0.45461122    -0.44000
C1529       C  0.34350391  0.14843476  0.14538266    -0.00400
C1530       C  0.35352398  0.14543753  0.10461784    -0.12300
C1531       C  0.35525121  0.12048710  0.08691188     0.01800
C1532       C  0.34675507  0.09749232  0.11006685    -0.00500
C1533       C  0.33693804  0.10035987  0.15080511    -0.12200
C1534       C  0.33511276  0.12529703  0.16857676     0.01700
H1535       H  0.36038612  0.16269928  0.08625500     0.14700
H1536       H  0.33025227  0.08296141  0.16897330     0.14700
C1537       C  0.32468759  0.12600125  0.21072494     0.36400
C1538       C  0.36715903  0.11931950  0.04524930     0.36300
N1539       N  0.31626110  0.12620105  0.24448693    -0.44000
N1540       N  0.37675988  0.11866552  0.01186525    -0.44000
C1541       C  0.16289712  0.15065534  0.78592266    -0.00400
C1542       C  0.12444795  0.14434460  0.77819525    -0.12300
C1543       C  0.11210077  0.11788555  0.77764885     0.01800
C1544       C  0.13859767  0.09734950  0.78495474    -0.00500
C1545       C  0.17753870  0.10371030  0.78887728    -0.12200
C1546       C  0.18978834  0.13006550  0.78984037     0.01700
H1547       H  0.10353147  0.16012612  0.77588758     0.14700
H1548       H  0.19803235  0.08804004  0.79475518     0.14700
C1549       C  0.22922708  0.13540158  0.79980962     0.36400
C1550       C  0.07167390  0.11253975  0.77424223     0.36300
N1551       N  0.26077467  0.13949367  0.80826673    -0.44000
N1552       N  0.03920529  0.10841354  0.77163279    -0.44000
C1553       C  0.25009815  0.24600851  0.96468583    -0.00400
C1554       C  0.25329882  0.22448956  0.99193132    -0.12300
C1555       C  0.27207734  0.22686263  0.02903395     0.01800
C1556       C  0.28828063  0.25138782  0.04003288    -0.00500
C1557       C  0.28503467  0.27289696  0.01281616    -0.12200
C1558       C  0.26647658  0.27047103  0.97561861     0.01700
H1559       H  0.24074498  0.20555629  0.98448210     0.14700
H1560       H  0.29767830  0.29180982  0.02021623     0.14700
C1561       C  0.26599423  0.29333124  0.94906828     0.36400
C1562       C  0.27344211  0.20377454  0.05512868     0.36300
N1563       N  0.26586061  0.31168751  0.92786776    -0.44000
N1564       N  0.27443335  0.18516360  0.07578720    -0.44000
C1565       C  0.02677845  0.24228484  0.96790891    -0.00400
C1566       C  0.03440808  0.22025305  0.94347347    -0.12300
C1567       C  0.06694322  0.21890872  0.91908847     0.01800
C1568       C  0.09334024  0.23999840  0.91817897    -0.00500
C1569       C  0.08519438  0.26267789  0.94092536    -0.12200
C1570       C  0.05235408  0.26398513  0.96569768     0.01700
H1571       H  0.01466905  0.20370340  0.94312947     0.14700
H1572       H  0.10525275  0.27904942  0.94050626     0.14700
C1573       C  0.04657573  0.28734201  0.98944759     0.36400
C1574       C  0.07204615  0.19568034  0.89468496     0.36300
N1575       N  0.04212631  0.30612669  0.00845302    -0.44000
N1576       N  0.07602297  0.17705298  0.87520581    -0.44000
C1577       C  0.28256032  0.25767529  0.72430250    -0.00400
C1578       C  0.28912176  0.27889516  0.69729346    -0.12300
C1579       C  0.32059288  0.27937839  0.67141457     0.01800
C1580       C  0.34752059  0.25866604  0.67265748    -0.00500
C1581       C  0.34051681  0.23677475  0.69837841    -0.12200
C1582       C  0.30813790  0.23601118  0.72386921     0.01700
H1583       H  0.26890569  0.29513515  0.69554835     0.14700
H1584       H  0.36085105  0.22059959  0.69935848     0.14700
C1585       C  0.30251058  0.21325920  0.74990816     0.36400
C1586       C  0.32350051  0.30086498  0.64240645     0.36300
N1587       N  0.29791908  0.19497692  0.77070313    -0.44000
N1588       N  0.32550251  0.31791974  0.61889263    -0.44000
C1589       C  0.12979807  0.64967803  0.96575540    -0.00400
C1590       C  0.16839890  0.64313896  0.97227443    -0.12300
C1591       C  0.18066153  0.61668450  0.97149051     0.01800
C1592       C  0.15415071  0.59645523  0.96321459    -0.00500
C1593       C  0.11521476  0.60288117  0.95943178    -0.12200
C1594       C  0.10287626  0.62921785  0.96095573     0.01700
H1595       H  0.18933867  0.65882157  0.97532132     0.14700
H1596       H  0.09469963  0.58742353  0.95283358     0.14700
C1597       C  0.06297217  0.63500880  0.95388278     0.36400
C1598       C  0.22098234  0.61098021  0.97516350     0.36300
N1599       N  0.03102041  0.63971692  0.94818710    -0.44000
N1600       N  0.25324884  0.60620596  0.97802046    -0.44000
C1601       C  0.09516359  0.50794336  0.82807508    -0.00400
C1602       C  0.08642174  0.52938653  0.80206220    -0.12300
C1603       C  0.05464090  0.52911195  0.77655176     0.01800
C1604       C  0.02938481  0.50728988  0.77698554    -0.00500
C1605       C  0.03891215  0.48516168  0.80113021    -0.12200
C1606       C  0.07141639  0.48522303  0.82638983     0.01700
H1607       H  0.10469820  0.54671342  0.80114021     0.14700
H1608       H  0.02051670  0.46794953  0.80095248     0.14700
C1609       C  0.07961882  0.46163172  0.84974797     0.36400
C1610       C  0.04950128  0.55131559  0.74917199     0.36300
N1611       N  0.08630073  0.44263407  0.86825557    -0.44000
N1612       N  0.04553950  0.56899829  0.72706642    -0.44000
C1613       C  0.19019578  0.34855082  0.85940234    -0.00400
C1614       C  0.19013053  0.35208918  0.90133347    -0.12300
C1615       C  0.19024762  0.37742566  0.91805165     0.01800
C1616       C  0.19028635  0.40022883  0.89265700    -0.00500
C1617       C  0.18898051  0.39672114  0.85076581    -0.12200
C1618       C  0.18897436  0.37138710  0.83401749     0.01700
H1619       H  0.19024837  0.33495674  0.92134044     0.14700
H1620       H  0.18830253  0.41388625  0.83082456     0.14700
C1621       C  0.18655639  0.36971590  0.79063025     0.36400
C1622       C  0.18914164  0.37921664  0.96148335     0.36300
N1623       N  0.18453665  0.36854924  0.75585650    -0.44000
N1624       N  0.18820489  0.38065516  0.99627906    -0.44000
C1625       C  0.13083401  0.15285504  0.46853432    -0.00400
C1626       C  0.17007805  0.14726676  0.47167711    -0.12300
C1627       C  0.18344750  0.12107128  0.47193457     0.01800
C1628       C  0.15736249  0.09999485  0.46793852    -0.00500
C1629       C  0.11793952  0.10553403  0.46829079    -0.12200
C1630       C  0.10454462  0.13170812  0.46916907     0.01700
H1631       H  0.19048236  0.16343768  0.47105286     0.14700
H1632       H  0.09762825  0.08946159  0.46517725     0.14700
C1633       C  0.06385785  0.13647292  0.46727488     0.36400
C1634       C  0.22416508  0.11650824  0.47242748     0.36300
N1635       N  0.03124395  0.14032169  0.46601200    -0.44000
N1636       N  0.25688405  0.11309491  0.47293813    -0.44000
C1637       C  0.03366523  0.24358555  0.28761427    -0.00400
C1638       C  0.03354948  0.22275451  0.25980414    -0.12300
C1639       C  0.01655187  0.22566391  0.22168820     0.01800
C1640       C  0.99933893  0.24998691  0.21062516    -0.00500
C1641       C  0.99924135  0.27063396  0.23869321    -0.12200
C1642       C  0.01580736  0.26765540  0.27674141     0.01700
H1643       H  0.04730023  0.20416950  0.26759812     0.14700
H1644       H  0.98528290  0.28922677  0.23134770     0.14700
C1645       C  0.01239714  0.28936096  0.30442690     0.36400
C1646       C  0.01794218  0.20352667  0.19461051     0.36300
N1647       N  0.00939798  0.30676669  0.32652435    -0.44000
N1648       N  0.01901341  0.18570873  0.17307350    -0.44000
C1649       C  0.99897805  0.25286218  0.52108598    -0.00400
C1650       C  0.96595195  0.26599329  0.50772719    -0.12300
C1651       C  0.93335458  0.26750561  0.53214315     0.01800
C1652       C  0.93360248  0.25634525  0.57157962    -0.00500
C1653       C  0.96580210  0.24184097  0.58409115    -0.12200
C1654       C  0.99833655  0.24001321  0.55930618     0.01700
H1655       H  0.96591625  0.27563781  0.47830705     0.14700
H1656       H  0.96619187  0.23283499  0.61395137     0.14700
C1657       C  0.03139930  0.22633343  0.57514489     0.36400
C1658       C  0.89982098  0.28032729  0.51556804     0.36300
N1659       N  0.05758177  0.21519908  0.58826404    -0.44000
N1660       N  0.87287825  0.29048165  0.50230082    -0.44000
C1661       C  0.18299480  0.24141564  0.32021020    -0.00400
C1662       C  0.21223091  0.25976658  0.32782074    -0.12300
C1663       C  0.24437707  0.26190805  0.30239294     0.01800
C1664       C  0.24783012  0.24543418  0.26827167    -0.00500
C1665       C  0.21738145  0.22844045  0.25921202    -0.12200
C1666       C  0.18518875  0.22645370  0.28427627     0.01700
H1667       H  0.21072397  0.27183002  0.35457639     0.14700
H1668       H  0.21919640  0.21602176  0.23283485     0.14700
C1669       C  0.15484022  0.20895016  0.27174720     0.36400
C1670       C  0.27434882  0.27998628  0.31376167     0.36300
N1671       N  0.13068067  0.19490656  0.26145457    -0.44000
N1672       N  0.29824737  0.29454641  0.32300854    -0.44000
C1673       C  0.14316144  0.24911748  0.66887354    -0.00400
C1674       C  0.11575174  0.26678703  0.65421102    -0.12300
C1675       C  0.10848313  0.26923593  0.61307345     0.01800
C1676       C  0.12950229  0.25383589  0.58504246    -0.00500
C1677       C  0.15543250  0.23486327  0.60011279    -0.12200
C1678       C  0.16249692  0.23248743  0.64177091     0.01700
H1679       H  0.10080103  0.27950086  0.67513078     0.14700
H1680       H  0.17114438  0.22253435  0.57935127     0.14700
C1681       C  0.19144755  0.21421560  0.65576022     0.36400
C1682       C  0.07893321  0.28777898  0.60122770     0.36300
N1683       N  0.21467840  0.19960761  0.66704598    -0.44000
N1684       N  0.05530273  0.30270255  0.59204908    -0.44000
C1685       C  0.14969442  0.65541256  0.29373655    -0.00400
C1686       C  0.11405560  0.64776588  0.30961970    -0.12300
C1687       C  0.10171778  0.62152344  0.30817898     0.01800
C1688       C  0.12518848  0.60220511  0.29063761    -0.00500
C1689       C  0.15913096  0.61014669  0.27116712    -0.12200
C1690       C  0.17138569  0.63669017  0.27222251     0.01700
H1691       H  0.09673805  0.66209126  0.32546788     0.14700
H1692       H  0.17743163  0.59532715  0.25780584     0.14700
C1693       C  0.20774289  0.64360156  0.25430491     0.36400
C1694       C  0.06605709  0.61453131  0.32759691     0.36300
N1695       N  0.23685006  0.64909345  0.23978661    -0.44000
N1696       N  0.03742912  0.60906270  0.34314740    -0.44000
C1697       C  0.03915077  0.50446701  0.46503665    -0.00400
C1698       C  0.01908994  0.48081841  0.47178936    -0.12300
C1699       C  0.99965365  0.47601627  0.50809112     0.01800
C1700       C  0.00043273  0.49504892  0.53921139    -0.00500
C1701       C  0.02086353  0.51858223  0.53263233    -0.12200
C1702       C  0.04023211  0.52341068  0.49629060     0.01700
H1703       H  0.01786433  0.46616076  0.44822112     0.14700
H1704       H  0.02210944  0.53323754  0.55620607     0.14700
C1705       C  0.06188998  0.54769050  0.49282617     0.36400
C1706       C  0.97786855  0.45179955  0.51144296     0.36300
N1707       N  0.07915262  0.56717852  0.49024243    -0.44000
N1708       N  0.96042013  0.43238731  0.51389328    -0.44000
C1709       C  0.94319378  0.49399399  0.17646021    -0.00400
C1710       C  0.94672678  0.47742270  0.21076743    -0.12300
C1711       C  0.97901526  0.47823711  0.23561298     0.01800
C1712       C  0.00906623  0.49599865  0.22678061    -0.00500
C1713       C  0.00501332  0.51361088  0.19388934    -0.12200
C1714       C  0.97251282  0.51277093  0.16875084     0.01700
H1715       H  0.92419293  0.46344189  0.21825315     0.14700
H1716       H  0.02814278  0.52716319  0.18660180     0.14700
C1717       C  0.97106938  0.53050841  0.13435259     0.36400
C1718       C  0.98059500  0.46056961  0.27019181     0.36300
N1719       N  0.96997725  0.54476288  0.10679182    -0.44000
N1720       N  0.98187050  0.44646209  0.29792017    -0.44000
C1721       C  0.15425647  0.50461455  0.17192663    -0.00400
C1722       C  0.12864992  0.51779005  0.14599984    -0.12300
C1723       C  0.13275854  0.51635283  0.10402568     0.01800
C1724       C  0.16346502  0.50189593  0.08766261    -0.00500
C1725       C  0.19080708  0.49067651  0.11400573    -0.12200
C1726       C  0.18617842  0.49163735  0.15576513     0.01700
H1727       H  0.10360772  0.52735679  0.15850843     0.14700
H1728       H  0.21529540  0.48023656  0.10193430     0.14700
C1729       C  0.21369991  0.47832177  0.18137984     0.36400
C1730       C  0.10318066  0.52767185  0.07886416     0.36300
N1731       N  0.23584295  0.46763320  0.20175528    -0.44000
N1732       N  0.07923669  0.53660711  0.05883682    -0.44000
C1733       C  0.09558369  0.40209329  0.35733557    -0.00400
C1734       C  0.09168613  0.39673319  0.39872440    -0.12300
C1735       C  0.08968126  0.37068117  0.41368190     0.01800
C1736       C  0.09209122  0.34892049  0.38701832    -0.00500
C1737       C  0.09714835  0.35428328  0.34573288    -0.12200
C1738       C  0.09866918  0.38038308  0.33073543     0.01700
H1739       H  0.08951406  0.41301079  0.41959278     0.14700
H1740       H  0.09938467  0.33800854  0.32487738     0.14700
C1741       C  0.10409595  0.38408311  0.28784562     0.36400
C1742       C  0.08561171  0.36716335  0.45679257     0.36300
N1743       N  0.10833125  0.38695448  0.25344447    -0.44000
N1744       N  0.08217526  0.36443464  0.49131965    -0.44000
C1745       C  0.41569469  0.84855139  0.04560275    -0.00400
C1746       C  0.38177304  0.85591319  0.02576639    -0.12300
C1747       C  0.36850722  0.88214351  0.02706668     0.01800
C1748       C  0.38941126  0.90118898  0.04871948    -0.00500
C1749       C  0.42488147  0.89408744  0.06554697    -0.12200
C1750       C  0.43803198  0.86805514  0.06422413     0.01700
H1751       H  0.36414119  0.84080808  0.01212885     0.14700
H1752       H  0.44135843  0.90863191  0.08191626     0.14700
C1753       C  0.47310495  0.86128344  0.08498137     0.36400
C1754       C  0.33165431  0.88830246  0.00975684     0.36300
N1755       N  0.50110422  0.85569136  0.10162319    -0.44000
N1756       N  0.30205179  0.89321309  0.99597330    -0.44000
C1757       C  0.50220103  0.75109710  0.21878668    -0.00400
C1758       C  0.52855430  0.77003836  0.23235285    -0.12300
C1759       C  0.54529784  0.76792346  0.27056237     0.01800
C1760       C  0.53567734  0.74645837  0.29632569    -0.00500
C1761       C  0.50914081  0.72763139  0.28298407    -0.12200
C1762       C  0.49227379  0.72978740  0.24481057     0.01700
H1763       H  0.53642747  0.78654905  0.21285110     0.14700
H1764       H  0.50145646  0.71111462  0.30256452     0.14700
C1765       C  0.46392592  0.71033318  0.23399865     0.36400
C1766       C  0.57364991  0.78735738  0.28153726     0.36300
N1767       N  0.44120432  0.69473200  0.22542607    -0.44000
N1768       N  0.59646219  0.80286484  0.29024637    -0.44000
C1769       C  0.59199572  0.74208021  0.92140262    -0.00400
C1770       C  0.58812450  0.76141732  0.95131742    -0.12300
C1771       C  0.55605778  0.76158246  0.97723787     0.01800
C1772       C  0.52722233  0.74215774  0.97325247    -0.00500
C1773       C  0.53035858  0.72393950  0.94172185    -0.12200
C1774       C  0.56212063  0.72370287  0.91616564     0.01700
H1775       H  0.61108265  0.77550253  0.95585333     0.14700
H1776       H  0.50783315  0.70952762  0.93705727     0.14700
C1777       C  0.56339182  0.70416457  0.88480917     0.36400
C1778       C  0.55461912  0.78075357  0.00904343     0.36300
N1779       N  0.56419804  0.68845077  0.85977964    -0.44000
N1780       N  0.55348383  0.79605690  0.03466727    -0.44000
C1781       C  0.28695276  0.75370345  0.23600819    -0.00400
C1782       C  0.31820383  0.76955929  0.24657630    -0.12300
C1783       C  0.35132504  0.77054584  0.22285465     0.01800
C1784       C  0.35330435  0.75626983  0.18636135    -0.00500
C1785       C  0.32323220  0.73883015  0.17732478    -0.12200
C1786       C  0.29040782  0.73724224  0.20190829     0.01700
H1787       H  0.31653133  0.78161426  0.27335408     0.14700
H1788       H  0.32474279  0.72705171  0.15027442     0.14700
C1789       C  0.26004691  0.71956819  0.19015461     0.36400
C1790       C  0.38318611  0.78587044  0.23758106     0.36300
N1791       N  0.23584689  0.70525778  0.18085426    -0.44000
N1792       N  0.40873860  0.79796272  0.24971409    -0.44000
C1793       C  0.40250223  0.39970422  0.21155581    -0.00400
C1794       C  0.36512291  0.39276502  0.20028747    -0.12300
C1795       C  0.35316160  0.36637571  0.20076258     0.01800
C1796       C  0.37886919  0.34630928  0.21250537    -0.00500
C1797       C  0.41528383  0.35329328  0.22680961    -0.12200
C1798       C  0.42717302  0.37987902  0.22676474     0.01700
H1799       H  0.34593578  0.40788967  0.18864106     0.14700
H1800       H  0.43527971  0.33785634  0.23549900     0.14700
C1801       C  0.46584000  0.38595725  0.23875354     0.36400
C1802       C  0.31540106  0.36016110  0.18594131     0.36300
N1803       N  0.49685641  0.39075819  0.24842956    -0.44000
N1804       N  0.28514742  0.35522610  0.17403074    -0.44000
C1805       C  0.50836972  0.49646471  0.04253043    -0.00400
C1806       C  0.49605602  0.51706239  0.01689821    -0.12300
C1807       C  0.51170189  0.52053975  0.97829290     0.01800
C1808       C  0.54073997  0.50332272  0.96468177    -0.00500
C1809       C  0.55349117  0.48298220  0.99061611    -0.12200
C1810       C  0.53776434  0.47948133  0.02919335     0.01700
H1811       H  0.47302428  0.52992375  0.02644369     0.14700
H1812       H  0.57637801  0.47001727  0.98102190     0.14700
C1813       C  0.55316215  0.45879182  0.05484574     0.36400
C1814       C  0.49604388  0.54116886  0.95271238     0.36300
N1815       N  0.56560298  0.44226061  0.07541391    -0.44000
N1816       N  0.48343509  0.55765358  0.93217413    -0.44000
C1817       C  0.35513517  0.49196670  0.06845139    -0.00400
C1818       C  0.32654455  0.51088582  0.07581178    -0.12300
C1819       C  0.29410131  0.51310658  0.05074792     0.01800
C1820       C  0.28990306  0.49631551  0.01706758    -0.00500
C1821       C  0.31964629  0.47868590  0.00837970    -0.12200
C1822       C  0.35181442  0.47636765  0.03329945     0.01700
H1823       H  0.32871113  0.52327291  0.10216823     0.14700
H1824       H  0.31719622  0.46589743  0.98247931     0.14700
C1825       C  0.38077359  0.45756574  0.02166139     0.36400
C1826       C  0.26456191  0.53153631  0.06206577     0.36300
N1827       N  0.40378829  0.44239483  0.01227585    -0.44000
N1828       N  0.24093574  0.54631019  0.07126146    -0.44000
C1829       C  0.59472788  0.50754383  0.32464375    -0.00400
C1830       C  0.59218936  0.52415119  0.29028202    -0.12300
C1831       C  0.56113108  0.52290595  0.26365439     0.01800
C1832       C  0.53111764  0.50467660  0.27078061    -0.00500
C1833       C  0.53439660  0.48709550  0.30386439    -0.12200
C1834       C  0.56552904  0.48844337  0.33079042     0.01700
H1835       H  0.61473582  0.53835746  0.28395310     0.14700
H1836       H  0.51159491  0.47305833  0.30993015     0.14700
C1837       C  0.56546033  0.47088231  0.36543261     0.36400
C1838       C  0.56110359  0.54056471  0.22902618     0.36300
N1839       N  0.56505426  0.45677502  0.39318954    -0.44000
N1840       N  0.56122982  0.55474342  0.20134337    -0.44000
C1841       C  0.44036686  0.59725248  0.14287442    -0.00400
C1842       C  0.41371945  0.61560409  0.15714128    -0.12300
C1843       C  0.41411564  0.64189168  0.14349810     0.01800
C1844       C  0.44185532  0.65030991  0.11500185    -0.00500
C1845       C  0.46865066  0.63182924  0.10083723    -0.12200
C1846       C  0.46835921  0.60554555  0.11487972     0.01700
H1847       H  0.39230130  0.60928669  0.17892863     0.14700
H1848       H  0.49042229  0.63806089  0.07941837     0.14700
C1849       C  0.49848023  0.58791405  0.10235775     0.36400
C1850       C  0.38487070  0.65945515  0.15832551     0.36300
N1851       N  0.52283483  0.57379063  0.09290487    -0.44000
N1852       N  0.36143795  0.67349530  0.17026404    -0.44000
C1853       C  0.38118581  0.84660112  0.72015447    -0.00400
C1854       C  0.42014889  0.85341829  0.72085546    -0.12300
C1855       C  0.43173181  0.87995939  0.72244732     0.01800
C1856       C  0.40407389  0.90019604  0.72197357    -0.00500
C1857       C  0.36515133  0.89333013  0.72435113    -0.12200
C1858       C  0.35357869  0.86671812  0.72421589     0.01700
H1859       H  0.44154732  0.83805425  0.71778134     0.14700
H1860       H  0.34369312  0.90881586  0.72380204     0.14700
C1861       C  0.31320911  0.86066121  0.72478086     0.36400
C1862       C  0.47204296  0.88609449  0.72071569     0.36300
N1863       N  0.28085248  0.85580456  0.72547337    -0.44000
N1864       N  0.50431939  0.89114397  0.71945868    -0.44000
C1865       C  0.25466495  0.74828281  0.46530526    -0.00400
C1866       C  0.25278613  0.72803639  0.49470101    -0.12300
C1867       C  0.26921442  0.73106064  0.53276750     0.01800
C1868       C  0.28885887  0.75465796  0.54193200    -0.00500
C1869       C  0.29065580  0.77496378  0.51258266    -0.12200
C1870       C  0.27369826  0.77207949  0.47467117     0.01700
H1871       H  0.23742642  0.70991858  0.48835481     0.14700
H1872       H  0.30589838  0.79311600  0.51901160     0.14700
C1873       C  0.27721186  0.79364072  0.44589422     0.36400
C1874       C  0.26378915  0.71007096  0.56220952     0.36300
N1875       N  0.28007489  0.81102939  0.42305170    -0.44000
N1876       N  0.25916393  0.69327640  0.58575498    -0.44000
C1877       C  0.44004504  0.75610736  0.57950182    -0.00400
C1878       C  0.44188960  0.77171856  0.54398455    -0.12300
C1879       C  0.47306512  0.77035122  0.51739366     0.01800
C1880       C  0.50396298  0.75314677  0.52580787    -0.00500
C1881       C  0.50129090  0.73639693  0.56000873    -0.12200
C1882       C  0.46993305  0.73778338  0.58678162     0.01700
H1883       H  0.41874223  0.78524656  0.53679131     0.14700
H1884       H  0.52470651  0.72308005  0.56704169     0.14700
C1885       C  0.47034954  0.72124637  0.62255303     0.36400
C1886       C  0.47238724  0.78670791  0.48133687     0.36300
N1887       N  0.47070366  0.70803582  0.65130832    -0.44000
N1888       N  0.47185806  0.79971579  0.45236473    -0.44000
C1889       C  0.24701413  0.74607494  0.77135779    -0.00400
C1890       C  0.24648710  0.76121057  0.80670687    -0.12300
C1891       C  0.21561260  0.75971470  0.83396448     0.01800
C1892       C  0.18406191  0.74308996  0.82575620    -0.00500
C1893       C  0.18356722  0.72951935  0.78891182    -0.12200
C1894       C  0.21442209  0.73087673  0.76194470     0.01700
H1895       H  0.27150975  0.77273040  0.81461705     0.14700
H1896       H  0.15903578  0.71744034  0.78122807     0.14700
C1897       C  0.21195808  0.71640425  0.72475065     0.36400
C1898       C  0.21851231  0.77385597  0.87137048     0.36300
N1899       N  0.20997362  0.70490390  0.69487020    -0.44000
N1900       N  0.22095259  0.78511058  0.90143176    -0.44000
C1901       C  0.38807727  0.75139152  0.92577796    -0.00400
C1902       C  0.35570449  0.73843435  0.91138663    -0.12300
C1903       C  0.34865301  0.73696110  0.87006521     0.01800
C1904       C  0.37466689  0.74856559  0.84200147    -0.00500
C1905       C  0.40582242  0.76307780  0.85664551    -0.12200
C1906       C  0.41294010  0.76430843  0.89824632     0.01700
H1907       H  0.33679288  0.72834284  0.93251514     0.14700
H1908       H  0.42584365  0.77211272  0.83560159     0.14700
C1909       C  0.44773037  0.77684095  0.91168779     0.36400
C1910       C  0.31495535  0.72261208  0.85767630     0.36300
N1911       N  0.47574155  0.78678208  0.92228522    -0.44000
N1912       N  0.28818252  0.71080829  0.84800538    -0.44000
C1913       C  0.39082711  0.40296141  0.53920087    -0.00400
C1914       C  0.36677297  0.38364474  0.52256466    -0.12300
C1915       C  0.37839945  0.35696667  0.52135803     0.01800
C1916       C  0.41465009  0.34952888  0.53648080    -0.00500
C1917       C  0.43996039  0.36923156  0.54900663    -0.12200
C1918       C  0.42847251  0.39571748  0.55036057     0.01700
H1919       H  0.33788984  0.38893202  0.51371238     0.14700
H1920       H  0.46782173  0.36364640  0.56072953     0.14700
C1921       C  0.45518610  0.41495403  0.56563651     0.36400
C1922       C  0.35180015  0.33723333  0.50741930     0.36300
N1923       N  0.47648890  0.43040314  0.57794172    -0.44000
N1924       N  0.33069266  0.32130778  0.49615879    -0.44000
C1925       C  0.24526001  0.50144027  0.78631137    -0.00400
C1926       C  0.24443698  0.52175773  0.75693924    -0.12300
C1927       C  0.26124235  0.51853423  0.71897078     0.01800
C1928       C  0.28021006  0.49465474  0.70987827    -0.00500
C1929       C  0.27989735  0.47403611  0.73882719    -0.12200
C1930       C  0.26261969  0.47712010  0.77655499     0.01700
H1931       H  0.23002853  0.54021430  0.76340951     0.14700
H1932       H  0.29406886  0.45548834  0.73244493     0.14700
C1933       C  0.26442958  0.45521995  0.80490458     0.36400
C1934       C  0.25724675  0.53974832  0.68968265     0.36300
N1935       N  0.26588557  0.43759800  0.82746664    -0.44000
N1936       N  0.25372745  0.55672286  0.66623518    -0.44000
C1937       C  0.43438864  0.49435670  0.68086396    -0.00400
C1938       C  0.46601943  0.50988903  0.66928089    -0.12300
C1939       C  0.49895114  0.51132912  0.69379017     0.01800
C1940       C  0.50064981  0.49706078  0.73086323    -0.00500
C1941       C  0.46809570  0.48298199  0.74343979    -0.12200
C1942       C  0.43520564  0.48177882  0.71935306     0.01700
H1943       H  0.46573643  0.51997276  0.64022161     0.14700
H1944       H  0.46868739  0.47225931  0.77198764     0.14700
C1945       C  0.40251323  0.46766282  0.73542050     0.36400
C1946       C  0.53140019  0.52611330  0.67873591     0.36300
N1947       N  0.37642897  0.45641512  0.74863376    -0.44000
N1948       N  0.55720322  0.53808521  0.66641582    -0.44000
C1949       C  0.25170679  0.50269101  0.48363600    -0.00400
C1950       C  0.25066310  0.48776364  0.44811728    -0.12300
C1951       C  0.21959386  0.48968006  0.42125091     0.01800
C1952       C  0.18913436  0.50724483  0.42938262    -0.00500
C1953       C  0.18919895  0.52075011  0.46621149    -0.12200
C1954       C  0.21961445  0.51826533  0.49343328     0.01700
H1955       H  0.27500794  0.47558070  0.44027128     0.14700
H1956       H  0.16512612  0.53321384  0.47402390     0.14700
C1957       C  0.21686435  0.53146275  0.53171197     0.36400
C1958       C  0.22051981  0.47425180  0.38493130     0.36300
N1959       N  0.21454195  0.54173866  0.56260297    -0.44000
N1960       N  0.22103206  0.46174619  0.35594734    -0.44000
C1961       C  0.38263592  0.49458556  0.41635171    -0.00400
C1962       C  0.35197660  0.49875174  0.38948966    -0.12300
C1963       C  0.35709294  0.49681130  0.34778738     0.01800
C1964       C  0.39341663  0.49056958  0.33241302    -0.00500
C1965       C  0.42346573  0.48481141  0.35921985    -0.12200
C1966       C  0.41839577  0.48672676  0.40100728     0.01700
H1967       H  0.32427214  0.50464844  0.40106050     0.14700
H1968       H  0.45169288  0.48064665  0.34733248     0.14700
C1969       C  0.45123075  0.48330896  0.42691538     0.36400
C1970       C  0.32552481  0.50325637  0.32135024     0.36300
N1971       N  0.47775562  0.48077075  0.44746730    -0.44000
N1972       N  0.30016592  0.50845607  0.30027491    -0.44000
C1973       C  0.33963534  0.65048382  0.64345031    -0.00400
C1974       C  0.34110368  0.64751687  0.60147684    -0.12300
C1975       C  0.34123039  0.62242133  0.58385943     0.01800
C1976       C  0.33999518  0.59914187  0.60842635    -0.00500
C1977       C  0.33802529  0.60217239  0.65044005    -0.12200
C1978       C  0.33782277  0.62728065  0.66801908     0.01700
H1979       H  0.34226159  0.66495976  0.58212328     0.14700
H1980       H  0.33689838  0.58478835  0.66990831     0.14700
C1981       C  0.33710210  0.62830655  0.71154299     0.36400
C1982       C  0.34376735  0.62158481  0.54041735     0.36300
N1983       N  0.33653318  0.62905568  0.74641428    -0.44000
N1984       N  0.34582934  0.62111014  0.50559366    -0.44000
loop_ 
_geom_bond_atom_site_label_1 
_geom_bond_atom_site_label_2 
_geom_bond_distance 
_geom_bond_site_symmetry_2 
_ccdc_geom_bond_type 
O1           Ni7   1.928       .  S
O1           C22   1.273       .  A
O2          Ni25   1.918       .  S
O2           C11   1.274       .  A
O3           Ni7   1.891       .  S
O3          Ni25   1.896       .  S
O3          Ni19   1.902       .  S
O3           H26   0.966       .  S
C4           O21   1.271       .  A
C4           O13   1.273       .  A
C4         C1961   1.477       .  S
O5          Ni24   1.929       .  S
O5           C11   1.272       .  A
O6          Ni24   1.901       .  S
O6            C8   1.271       .  A
Ni7          O10   1.917       .  S
Ni7          O12   1.910       .  S
C8           O18   1.282       .  A
C8         C1949   1.487       .  S
O9          Ni25   1.929       .  S
O9           C15   1.281       .  A
O10          C15   1.279       .  A
C11        C1976   1.502       .  S
O12          C14   1.269       .  A
O13         Ni24   1.932       .  S
C14          O20   1.277       .  A
C14        C1937   1.498       .  S
C15        C1928   1.489       .  S
H16          O17   0.966       .  S
O17         Ni25   1.928       .  S
O17         Ni19   1.923       .  S
O17         Ni24   1.909       .  S
O18         Ni19   1.966       .  S
Ni19         O23   1.930       .  S
Ni19         O21   1.912       .  S
O20         Ni25   1.947       .  S
C22          O23   1.274       .  A
C22        C1913   1.488       .  S
O27         Ni33   1.929       .  S
O27          C48   1.273       .  A
O28         Ni51   1.918       .  S
O28          C37   1.273       .  A
O29         Ni33   1.891       .  S
O29         Ni51   1.895       .  S
O29         Ni45   1.907       .  S
O29          H52   0.966       .  S
C30          O47   1.276       .  A
C30          O39   1.273       .  A
C30        C1904   1.484       .  S
O31         Ni50   1.929       .  S
O31          C37   1.270       .  A
O32         Ni50   1.906       .  S
O32          C34   1.270       .  A
Ni33         O36   1.918       .  S
Ni33         O38   1.913       .  S
C34          O44   1.278       .  A
C34        C1889   1.490       .  S
O35         Ni51   1.923       .  S
O35          C41   1.280       .  A
O36          C41   1.279       .  A
C37        C1973   1.497       .  S
O38          C40   1.270       .  A
O39         Ni50   1.918       .  S
C40          O46   1.278       .  A
C40        C1877   1.504       .  S
C41        C1868   1.482       .  S
H42          O43   0.966       .  S
O43         Ni51   1.918       .  S
O43         Ni45   1.924       .  S
O43         Ni50   1.906       .  S
O44         Ni45   1.955       .  S
Ni45         O49   1.926       .  S
Ni45         O47   1.918       .  S
O46         Ni51   1.947       .  S
C48          O49   1.273       .  A
C48        C1853   1.481       .  S
O53         Ni59   1.923       .  S
O53          C74   1.271       .  A
O54         Ni77   1.907       .  S
O54          C63   1.270       .  A
O55         Ni59   1.890       .  S
O55         Ni77   1.891       .  S
O55         Ni71   1.901       .  S
O55          H78   0.966       .  S
C56          O73   1.268       .  A
C56          O65   1.269       .  A
C56        C1964   1.468       .  S
O57         Ni76   1.920       .  S
O57          C63   1.270       .  A
O58         Ni76   1.903       .  S
O58          C60   1.273       .  A
Ni59         O62   1.916       .  S
Ni59         O64   1.906       .  S
C60          O70   1.285       .  A
C60        C1832   1.495       .  S
O61         Ni77   1.931       .  S
O61          C67   1.282       .  A
O62          C67   1.278       .  A
C63        C1841   1.474       .  S
O64          C66   1.268       .  A
O65         Ni76   1.925       .  S
C66          O72   1.275       .  A
C66        C1817   1.500       .  S
C67        C1805   1.483       .  S
H68          O69   0.966       .  S
O69         Ni77   1.936       .  S
O69         Ni71   1.920       .  S
O69         Ni76   1.909       .  S
O70         Ni71   1.970       .  S
Ni71         O75   1.924       .  S
Ni71         O73   1.913       .  S
O72         Ni77   1.942       .  S
C74          O75   1.272       .  A
C74        C1793   1.480       .  S
O79         Ni85   1.918       .  S
O79         C100   1.269       .  A
O80        Ni103   1.903       .  S
O80          C89   1.268       .  A
O81         Ni85   1.890       .  S
O81        Ni103   1.890       .  S
O81         Ni97   1.910       .  S
O81         H104   0.966       .  S
C82          O99   1.273       .  A
C82          O91   1.275       .  A
C82        C1901   1.469       .  S
O83        Ni102   1.934       .  S
O83          C89   1.272       .  A
O84        Ni102   1.902       .  S
O84          C86   1.272   1_554  A
Ni85         O88   1.912       .  S
Ni85         O90   1.909       .  S
C86          O96   1.278   1_556  A
C86        C1772   1.492       .  S
O87        Ni103   1.932       .  S
O87          C93   1.283       .  A
O88          C93   1.278       .  A
C89        C1844   1.485       .  S
O90          C92   1.268       .  A
O91        Ni102   1.921   1_556  S
C92          O98   1.273       .  A
C92        C1784   1.495       .  S
C93        C1757   1.484       .  S
H94          O95   0.966       .  S
O95        Ni103   1.918       .  S
O95         Ni97   1.912       .  S
O95        Ni102   1.901       .  S
O96         Ni97   1.948       .  S
Ni97        O101   1.917       .  S
Ni97         O99   1.911   1_554  S
O98        Ni103   1.937       .  S
C100        O101   1.271       .  A
C100       C1745   1.470       .  S
O105       Ni111   1.925       .  S
O105        C126   1.269       .  A
O106       Ni129   1.923       .  S
O106        C115   1.271       .  A
O107       Ni111   1.902       .  S
O107       Ni129   1.917       .  S
O107       Ni123   1.922       .  S
O107        H130   0.965       .  S
C108        O125   1.285       .  A
C108        O117   1.277       .  A
C108       C1697   1.489       .  S
O109       Ni128   1.923       .  S
O109        C115   1.270       .  A
O110       Ni128   1.911       .  S
O110        C112   1.270       .  A
Ni111       O114   1.918       .  S
Ni111       O116   1.902       .  S
C112        O122   1.271       .  A
C112       C1952   1.491       .  S
O113       Ni129   1.910       .  S
O113        C119   1.272       .  A
O114        C119   1.274       .  A
C115       C1688   1.477       .  S
O116        C118   1.270       .  A
O117       Ni128   1.911       .  S
C118        O124   1.278       .  A
C118       C1712   1.486       .  S
C119       C1721   1.466       .  S
H120        O121   0.966       .  S
O121       Ni129   1.911       .  S
O121       Ni123   1.900       .  S
O121       Ni128   1.895       .  S
O122       Ni123   1.929       .  S
Ni123       O127   1.925       .  S
Ni123       O125   1.938       .  S
O124       Ni129   1.947       .  S
C126        O127   1.274       .  A
C126       C1733   1.496       .  S
O131       Ni137   1.923       .  S
O131        C152   1.268       .  A
O132       Ni155   1.928       .  S
O132        C141   1.274       .  A
O133       Ni137   1.899       .  S
O133       Ni155   1.918       .  S
O133       Ni149   1.914       .  S
O133        H156   0.966       .  S
C134        O151   1.281       .  A
C134        O143   1.279       .  A
C134       C1637   1.485       .  S
O135       Ni154   1.928       .  S
O135        C141   1.272       .  A
O136       Ni154   1.908       .  S
O136        C138   1.268       .  A
Ni137       O140   1.915       .  S
Ni137       O142   1.905       .  S
C138        O148   1.277       .  A
C138       C1661   1.498       .  S
O139       Ni155   1.923       .  S
O139        C145   1.279       .  A
O140        C145   1.274       .  A
C141       C1625   1.480       .  S
O142        C144   1.269       .  A
O143       Ni154   1.919       .  S
C144        O150   1.275       .  A
C144       C1649   1.485   1_455  S
C145       C1676   1.490       .  S
H146        O147   0.966       .  S
O147       Ni155   1.916       .  S
O147       Ni149   1.900       .  S
O147       Ni154   1.890       .  S
O148       Ni149   1.941       .  S
Ni149       O153   1.929       .  S
Ni149       O151   1.927       .  S
O150       Ni155   1.948       .  S
C152        O153   1.274       .  A
C152       C1736   1.498       .  S
O157       Ni163   1.934       .  S
O157        C178   1.273       .  A
O158       Ni181   1.923       .  S
O158        C167   1.273       .  A
O159       Ni163   1.901       .  S
O159       Ni181   1.916       .  S
O159       Ni175   1.915       .  S
O159        H182   0.967       .  S
C160        O177   1.280       .  A
C160        O169   1.279       .  A
C160       C1925   1.485       .  S
O161       Ni180   1.928       .  S
O161        C167   1.271       .  A
O162       Ni180   1.903       .  S
O162        C164   1.268       .  A
Ni163       O166   1.928   1_556  S
Ni163       O168   1.907       .  S
C164        O174   1.276       .  A
C164       C1601   1.504       .  S
O165       Ni181   1.912   1_554  S
O165        C171   1.275       .  A
O166        C171   1.276       .  A
C167       C1592   1.479       .  S
O168        C170   1.271       .  A
O169       Ni180   1.917       .  S
C170        O176   1.278       .  A
C170       C1820   1.494   1_556  S
C171       C1724   1.481       .  S
H172        O173   0.966       .  S
O173       Ni181   1.906       .  S
O173       Ni175   1.894       .  S
O173       Ni180   1.887       .  S
O174       Ni175   1.943       .  S
Ni175       O179   1.910       .  S
Ni175       O177   1.928       .  S
O176       Ni181   1.956       .  S
C178        O179   1.272       .  A
C178       C1616   1.493       .  S
O183       Ni189   1.927       .  S
O183        C204   1.270       .  A
O184       Ni207   1.920       .  S
O184        C193   1.270       .  A
O185       Ni189   1.903       .  S
O185       Ni207   1.923       .  S
O185       Ni201   1.918       .  S
O185        H208   0.966       .  S
C186        O203   1.281       .  A
C186        O195   1.278       .  A
C186       C1553   1.494       .  S
O187       Ni206   1.928       .  S
O187        C193   1.270       .  A
O188       Ni206   1.911       .  S
O188        C190   1.269       .  A
Ni189       O192   1.918       .  S
Ni189       O194   1.897       .  S
C190        O200   1.271       .  A
C190       C1568   1.491       .  S
O191       Ni207   1.912       .  S
O191        C197   1.272       .  A
O192        C197   1.273       .  A
C193       C1541   1.476       .  S
O194        C196   1.270       .  A
O195       Ni206   1.917       .  S
C196        O202   1.278       .  A
C196       C1577   1.493       .  S
C197       C1673   1.469       .  S
H198        O199   0.966       .  S
O199       Ni207   1.908       .  S
O199       Ni201   1.905       .  S
O199       Ni206   1.902       .  S
O200       Ni201   1.933       .  S
Ni201       O205   1.917       .  S
Ni201       O203   1.930       .  S
O202       Ni207   1.953       .  S
C204        O205   1.271       .  A
C204       C1613   1.496       .  S
O209       Ni215   1.927       .  S
O209        C230   1.272       .  A
O210       Ni233   1.905       .  S
O210        C219   1.271       .  A
O211       Ni215   1.890       .  S
O211       Ni233   1.890       .  S
O211       Ni227   1.903       .  S
O211        H234   0.966       .  S
C212        O229   1.272       .  A
C212        O221   1.273       .  A
C212       C1517   1.484       .  S
O213       Ni232   1.927       .  S
O213        C219   1.271       .  A
O214       Ni232   1.907       .  S
O214        C216   1.272       .  A
Ni215       O218   1.917       .  S
Ni215       O220   1.911       .  S
C216        O226   1.279       .  A
C216       C1664   1.493       .  S
O217       Ni233   1.933       .  S
O217        C223   1.282       .  A
O218        C223   1.279       .  A
C219       C1529   1.495       .  S
O220        C222   1.269       .  A
O221       Ni232   1.922       .  S
C222        O228   1.275       .  A
C222       C1505   1.498       .  S
C223       C1556   1.493       .  S
H224        O225   0.966       .  S
O225       Ni233   1.923       .  S
O225       Ni227   1.920       .  S
O225       Ni232   1.907       .  S
O226       Ni227   1.958       .  S
Ni227       O231   1.919       .  S
Ni227       O229   1.911       .  S
O228       Ni233   1.945       .  S
C230        O231   1.271       .  A
C230       C1796   1.474       .  S
O235       Ni241   1.924       .  S
O235        C256   1.272       .  A
O236       Ni259   1.902       .  S
O236        C245   1.269       .  A
O237       Ni241   1.892       .  S
O237       Ni259   1.891   1_565  S
O237       Ni253   1.900       .  S
O237        H260   0.966       .  S
C238        O255   1.270       .  A
C238        O247   1.272   1_565  A
C238       C1496   1.462       .  S
O239       Ni258   1.930       .  S
O239        C245   1.272       .  A
O240       Ni258   1.898       .  S
O240        C242   1.271       .  A
Ni241       O244   1.913       .  S
Ni241       O246   1.916       .  S
C242        O252   1.280   1_545  A
C242       C1481   1.483   1_554  S
O243       Ni259   1.929       .  S
O243        C249   1.281   1_545  A
O244        C249   1.276       .  A
C245       C1532   1.488       .  S
O246        C248   1.270       .  A
O247       Ni258   1.926   1_556  S
C248        O254   1.271   1_565  A
C248       C1469   1.501       .  S
C249       C1460   1.479       .  S
H250        O251   0.966       .  S
O251       Ni259   1.920       .  S
O251       Ni253   1.918   1_545  S
O251       Ni258   1.902       .  S
O252       Ni253   1.959       .  S
Ni253       O257   1.918       .  S
Ni253       O255   1.907   1_554  S
O254       Ni259   1.929       .  S
C256        O257   1.271       .  A
C256       C1748   1.480       .  S
O261       Ni267   1.926       .  S
O261        C282   1.269       .  A
O262       Ni285   1.915       .  S
O262        C271   1.270       .  A
O263       Ni267   1.902       .  S
O263       Ni285   1.906       .  S
O263       Ni279   1.902       .  S
O263        H286   0.966       .  S
C264        O281   1.267       .  A
C264        O273   1.273       .  A
C264       C1520   1.462       .  S
O265       Ni284   1.932       .  S
O265        C271   1.272       .  A
O266       Ni284   1.901       .  S
O266        C268   1.272       .  A
Ni267       O270   1.911       .  S
Ni267       O272   1.908       .  S
C268        O278   1.281       .  A
C268       C1433   1.507       .  S
O269       Ni285   1.927       .  S
O269        C275   1.282       .  A
O270        C275   1.275       .  A
C271       C1445   1.501       .  S
O272        C274   1.269       .  A
O273       Ni284   1.919       .  S
C274        O280   1.270       .  A
C274       C1580   1.487       .  S
C275       C1421   1.480       .  S
H276        O277   0.966       .  S
O277       Ni285   1.918       .  S
O277       Ni279   1.923       .  S
O277       Ni284   1.905       .  S
O278       Ni279   1.957       .  S
Ni279       O283   1.922       .  S
Ni279       O281   1.898       .  S
O280       Ni285   1.932       .  S
C282        O283   1.270       .  A
C282       C1916   1.478       .  S
O287       Ni293   1.926       .  S
O287        C308   1.269       .  A
O288       Ni311   1.912       .  S
O288        C297   1.272       .  A
O289       Ni293   1.891       .  S
O289       Ni311   1.893   1_565  S
O289       Ni305   1.900       .  S
O289        H312   0.966       .  S
C290        O307   1.271   1_545  A
C290        O299   1.274       .  A
C290       C1493   1.477   1_545  S
O291       Ni310   1.929       .  S
O291        C297   1.274       .  A
O292       Ni310   1.905       .  S
O292        C294   1.272       .  A
Ni293       O296   1.913       .  S
Ni293       O298   1.903       .  S
C294        O304   1.282   1_545  A
C294       C1400   1.498       .  S
O295       Ni311   1.930       .  S
O295        C301   1.283   1_545  A
O296        C301   1.277       .  A
C297       C1448   1.493       .  S
O298        C300   1.267       .  A
O299       Ni310   1.931       .  S
C300        O306   1.275   1_565  A
C300       C1409   1.496       .  S
C301       C1388   1.483       .  S
H302        O303   0.966       .  S
O303       Ni311   1.926       .  S
O303       Ni305   1.919   1_545  S
O303       Ni310   1.907       .  S
O304       Ni305   1.966       .  S
Ni305       O309   1.925       .  S
Ni305       O307   1.905       .  S
O306       Ni311   1.947       .  S
C308        O309   1.272       .  A
C308       C1856   1.478       .  S
O313       Ni319   1.928       .  S
O313        C334   1.269       .  A
O314       Ni337   1.937       .  S
O314        C323   1.277       .  A
O315       Ni319   1.901       .  S
O315       Ni337   1.919   1_565  S
O315       Ni331   1.911       .  S
O315        H338   0.966       .  S
C316        O333   1.279   1_545  A
C316        O325   1.277       .  A
C316       C1385   1.483       .  S
O317       Ni336   1.925       .  S
O317        C323   1.270       .  A
O318       Ni336   1.905       .  S
O318        C320   1.268       .  A
Ni319       O322   1.916       .  S
Ni319       O324   1.899       .  S
C320        O330   1.274   1_545  A
C320       C1349   1.486       .  S
O321       Ni337   1.924       .  S
O321        C327   1.279   1_545  A
O322        C327   1.275       .  A
C323       C1337   1.485       .  S
O324        C326   1.268       .  A
O325       Ni336   1.919       .  S
C326        O332   1.279   1_565  A
C326       C1472   1.490       .  S
C327       C1361   1.477       .  S
H328        O329   0.966       .  S
O329       Ni337   1.917       .  S
O329       Ni331   1.903   1_545  S
O329       Ni336   1.895       .  S
O330       Ni331   1.937       .  S
Ni331       O335   1.912       .  S
Ni331       O333   1.923       .  S
O332       Ni337   1.952       .  S
C334        O335   1.269       .  A
C334       C1376   1.495       .  S
O339       Ni345   1.922       .  S
O339        C360   1.271       .  A
O340       Ni363   1.919       .  S
O340        C349   1.269       .  A
O341       Ni345   1.912       .  S
O341       Ni363   1.919       .  S
O341       Ni357   1.929       .  S
O341        H364   0.967       .  S
C342        O359   1.279       .  A
C342        O351   1.278       .  A
C342       C1760   1.480       .  S
O343       Ni362   1.930       .  S
O343        C349   1.271       .  A
O344       Ni362   1.907       .  S
O344        C346   1.269       .  A
Ni345       O348   1.924       .  S
Ni345       O350   1.906       .  S
C346        O356   1.276       .  A
C346       C1313   1.506       .  S
O347       Ni363   1.902       .  S
O347        C353   1.265       .  A
O348        C353   1.270       .  A
C349       C1301   1.476       .  S
O350        C352   1.273       .  A
O351       Ni362   1.918       .  S
C352        O358   1.285       .  A
C352       C1880   1.498       .  S
C353       C1325   1.461       .  S
H354        O355   0.966       .  S
O355       Ni363   1.897       .  S
O355       Ni357   1.897       .  S
O355       Ni362   1.895       .  S
O356       Ni357   1.949       .  S
Ni357       O361   1.907       .  S
Ni357       O359   1.922       .  S
O358       Ni363   1.975       .  S
C360        O361   1.270       .  A
C360       C1373   1.481       .  S
O365       Ni371   1.929       .  S
O365        C386   1.271       .  A
O366       Ni389   1.931       .  S
O366        C375   1.275       .  A
O367       Ni371   1.901       .  S
O367       Ni389   1.918   1_565  S
O367       Ni383   1.914       .  S
O367        H390   0.965       .  S
C368        O385   1.280   1_545  A
C368        O377   1.279       .  A
C368       C1265   1.483       .  S
O369       Ni388   1.925       .  S
O369        C375   1.271       .  A
O370       Ni388   1.910       .  S
O370        C372   1.269       .  A
Ni371       O374   1.919   1_556  S
Ni371       O376   1.907       .  S
C372        O382   1.276   1_545  A
C372       C1397   1.501       .  S
O373       Ni389   1.925   1_554  S
O373        C379   1.279   1_545  A
O374        C379   1.274       .  A
C375       C1253   1.480       .  S
O376        C378   1.270   1_556  A
O377       Ni388   1.922       .  S
C378        O384   1.278   1_564  A
C378       C1277   1.494       .  S
C379       C1364   1.496       .  S
H380        O381   0.966       .  S
O381       Ni389   1.917       .  S
O381       Ni383   1.895   1_545  S
O381       Ni388   1.893       .  S
O382       Ni383   1.943       .  S
Ni383       O387   1.912       .  S
Ni383       O385   1.925       .  S
O384       Ni389   1.954       .  S
C386        O387   1.269       .  A
C386       C1289   1.492       .  S
O391       Ni397   1.924       .  S
O391        C412   1.272       .  A
O392       Ni415   1.917       .  S
O392        C401   1.269       .  A
O393       Ni397   1.911       .  S
O393       Ni415   1.918       .  S
O393       Ni409   1.923       .  S
O393        H416   0.966       .  S
C394        O411   1.278       .  A
C394        O403   1.278       .  A
C394       C1229   1.485       .  S
O395       Ni414   1.934       .  S
O395        C401   1.271       .  A
O396       Ni414   1.901       .  S
O396        C398   1.267       .  A
Ni397       O400   1.928       .  S
Ni397       O402   1.897       .  S
C398        O408   1.273       .  A
C398       C1769   1.486       .  S
O399       Ni415   1.898       .  S
O399        C405   1.265       .  A
O400        C405   1.271       .  A
C401       C1220   1.480       .  S
O402        C404   1.269       .  A
O403       Ni414   1.924       .  S
C404        O410   1.284       .  A
C404       C1241   1.500       .  S
C405       C1328   1.461       .  S
H406        O407   0.966       .  S
O407       Ni415   1.900       .  S
O407       Ni409   1.905       .  S
O407       Ni414   1.907       .  S
O408       Ni409   1.942       .  S
Ni409       O413   1.907       .  S
Ni409       O411   1.920       .  S
O410       Ni415   1.975       .  S
C412        O413   1.269       .  A
C412       C1292   1.493       .  S
O417       Ni423   1.931       .  S
O417        C438   1.271       .  A
O418       Ni441   1.906       .  S
O418        C427   1.270       .  A
O419       Ni423   1.898       .  S
O419       Ni441   1.898       .  S
O419       Ni435   1.903       .  S
O419        H442   0.966       .  S
C420        O437   1.268       .  A
C420        O429   1.274       .  A
C420       C1193   1.463       .  S
O421       Ni440   1.936       .  S
O421        C427   1.275       .  A
O422       Ni440   1.904       .  S
O422        C424   1.273       .  A
Ni423       O426   1.921       .  S
Ni423       O428   1.904       .  S
C424        O434   1.283       .  A
C424       C1316   1.503       .  S
O425       Ni441   1.928       .  S
O425        C431   1.281       .  A
O426        C431   1.278       .  A
C427       C1205   1.493       .  S
O428        C430   1.269       .  A
O429       Ni440   1.932       .  S
C430        O436   1.273       .  A
C430       C1181   1.497       .  S
C431       C1232   1.483       .  S
H432        O433   0.967       .  S
O433       Ni441   1.920       .  S
O433       Ni435   1.917       .  S
O433       Ni440   1.906       .  S
O434       Ni435   1.975       .  S
Ni435       O439   1.923       .  S
Ni435       O437   1.902       .  S
O436       Ni441   1.940       .  S
C438        O439   1.271       .  A
C438       C1169   1.481       .  S
O443       Ni449   1.925       .  S
O443        C464   1.272       .  A
O444       Ni467   1.910       .  S
O444        C453   1.270       .  A
O445       Ni449   1.885       .  S
O445       Ni467   1.891       .  S
O445       Ni461   1.905       .  S
O445        H468   0.966       .  S
C446        O463   1.278       .  A
C446        O455   1.272       .  A
C446       C1157   1.486       .  S
O447       Ni466   1.933       .  S
O447        C453   1.273       .  A
O448       Ni466   1.909       .  S
O448        C450   1.272       .  A
Ni449       O452   1.917       .  S
Ni449       O454   1.909       .  S
C450        O460   1.278       .  A
C450       C1145   1.491   1_554  S
O451       Ni467   1.930       .  S
O451        C457   1.282       .  A
O452        C457   1.278       .  A
C453       C1208   1.499       .  S
O454        C456   1.269       .  A
O455       Ni466   1.915   1_556  S
C456        O462   1.274       .  A
C456       C1709   1.499       .  S
C457       C1133   1.487       .  S
H458        O459   0.966       .  S
O459       Ni467   1.915       .  S
O459       Ni461   1.924       .  S
O459       Ni466   1.900       .  S
O460       Ni461   1.953       .  S
Ni461       O465   1.932       .  S
Ni461       O463   1.917   1_554  S
O462       Ni467   1.939       .  S
C464        O465   1.276       .  A
C464       C1121   1.485       .  S
O469       Ni475   1.924       .  S
O469        C490   1.270       .  A
O470       Ni493   1.926       .  S
O470        C479   1.274       .  A
O471       Ni475   1.891       .  S
O471       Ni493   1.901       .  S
O471       Ni487   1.909       .  S
O471        H494   0.966       .  S
C472        O489   1.272       .  A
C472        O481   1.274       .  A
C472       C1160   1.470       .  S
O473       Ni492   1.925       .  S
O473        C479   1.269       .  A
O474       Ni492   1.901       .  S
O474        C476   1.270       .  A
Ni475       O478   1.914       .  S
Ni475       O480   1.908       .  S
C476        O486   1.278       .  A
C476       C1604   1.495   1_655  S
O477       Ni493   1.935       .  S
O477        C483   1.285       .  A
O478        C483   1.277       .  A
C479       C1112   1.494       .  S
O480        C482   1.269       .  A
O481       Ni492   1.914       .  S
C482        O488   1.275       .  A
C482       C1100   1.496       .  S
C483       C1700   1.489   1_655  S
H484        O485   0.966       .  S
O485       Ni493   1.922       .  S
O485       Ni487   1.919       .  S
O485       Ni492   1.902       .  S
O486       Ni487   1.949       .  S
Ni487       O491   1.924       .  S
Ni487       O489   1.911       .  S
O488       Ni493   1.941       .  S
C490        O491   1.272       .  A
C490       C1085   1.477       .  S
O495       Ni501   1.928       .  S
O495        C516   1.270       .  A
O496       Ni519   1.928       .  S
O496        C505   1.276       .  A
O497       Ni501   1.893       .  S
O497       Ni519   1.901       .  S
O497       Ni513   1.903       .  S
O497        H520   0.966       .  S
C498        O515   1.270       .  A
C498        O507   1.273       .  A
C498       C1196   1.467       .  S
O499       Ni518   1.922       .  S
O499        C505   1.269       .  A
O500       Ni518   1.899       .  S
O500        C502   1.268   1_655  A
Ni501       O504   1.914       .  S
Ni501       O506   1.907       .  S
C502        O512   1.280   1_455  A
C502       C1073   1.497       .  S
O503       Ni519   1.928       .  S
O503        C509   1.283       .  A
O504        C509   1.278       .  A
C505       C1109   1.505       .  S
O506        C508   1.270       .  A
O507       Ni518   1.926       .  S
C508        O514   1.277       .  A
C508       C1244   1.504       .  S
C509       C1061   1.487       .  S
H510        O511   0.966       .  S
O511       Ni519   1.921       .  S
O511       Ni513   1.920       .  S
O511       Ni518   1.905       .  S
O512       Ni513   1.965       .  S
Ni513       O517   1.922       .  S
Ni513       O515   1.906       .  S
O514       Ni519   1.946       .  S
C516        O517   1.270       .  A
C516       C1049   1.477       .  S
O521       Ni527   1.932       .  S
O521        C542   1.273       .  A
O522       Ni545   1.921       .  S
O522        C531   1.271       .  A
O523       Ni527   1.903       .  S
O523       Ni545   1.917       .  S
O523       Ni539   1.915       .  S
O523        H546   0.967       .  S
C524        O541   1.283       .  A
C524        O533   1.278       .  A
C524       C1136   1.487       .  S
O525       Ni544   1.928       .  S
O525        C531   1.273       .  A
O526       Ni544   1.914       .  S
O526        C528   1.270       .  A
Ni527       O530   1.926       .  S
Ni527       O532   1.907       .  S
C528        O538   1.273       .  A
C528       C1829   1.503       .  S
O529       Ni545   1.900       .  S
O529        C535   1.270       .  A
O530        C535   1.276       .  A
C531       C1304   1.480       .  S
O532        C534   1.270       .  A
O533       Ni544   1.913       .  S
C534        O540   1.279       .  A
C534       C1097   1.494       .  S
C535       C1025   1.462       .  S
H536        O537   0.966       .  S
O537       Ni545   1.901       .  S
O537       Ni539   1.897       .  S
O537       Ni544   1.892       .  S
O538       Ni539   1.940       .  S
Ni539       O543   1.913       .  S
Ni539       O541   1.932       .  S
O540       Ni545   1.957       .  S
C542        O543   1.271       .  A
C542       C1037   1.492       .  S
O547       Ni553   1.936       .  S
O547        C568   1.274       .  A
O548       Ni571   1.930       .  S
O548        C557   1.274       .  A
O549       Ni553   1.905       .  S
O549       Ni571   1.916       .  S
O549       Ni565   1.914       .  S
O549        H572   0.966       .  S
C550        O567   1.282       .  A
C550        O559   1.277       .  A
C550        C989   1.480       .  S
O551       Ni570   1.930       .  S
O551        C557   1.271       .  A
O552       Ni570   1.906       .  S
O552        C554   1.268       .  A
Ni553       O556   1.936       .  S
Ni553       O558   1.907       .  S
C554        O564   1.276       .  A
C554       C1436   1.497       .  S
O555       Ni571   1.896       .  S
O555        C561   1.269       .  A
O556        C561   1.275       .  A
C557       C1340   1.487       .  S
O558        C560   1.270       .  A
O559       Ni570   1.909       .  S
C560        O566   1.282       .  A
C560       C1001   1.495       .  S
C561       C1013   1.459       .  S
H562        O563   0.966       .  S
O563       Ni571   1.897       .  S
O563       Ni565   1.899       .  S
O563       Ni570   1.888       .  S
O564       Ni565   1.946       .  S
Ni565       O569   1.912       .  S
Ni565       O567   1.929       .  S
O566       Ni571   1.967       .  S
C568        O569   1.273       .  A
C568       C1040   1.497       .  S
O573       Ni579   1.926       .  S
O573        C594   1.270       .  A
O574       Ni597   1.921       .  S
O574        C583   1.271       .  A
O575       Ni579   1.899       .  S
O575       Ni597   1.915       .  S
O575       Ni591   1.915       .  S
O575        H598   0.966       .  S
C576        O593   1.284       .  A
C576        O585   1.279       .  A
C576       C1808   1.485       .  S
O577       Ni596   1.925       .  S
O577        C583   1.270       .  A
O578       Ni596   1.904       .  S
O578        C580   1.268       .  A
Ni579       O582   1.919       .  S
Ni579       O584   1.907       .  S
C580        O590   1.276       .  A
C580       C1148   1.497       .  S
O581       Ni597   1.911       .  S
O581        C587   1.275       .  A
O582        C587   1.276       .  A
C583       C1217   1.474       .  S
O584        C586   1.270       .  A
O585       Ni596   1.916       .  S
C586        O592   1.278       .  A
C586       C1940   1.494       .  S
C587       C1028   1.482       .  S
H588        O589   0.966       .  S
O589       Ni597   1.910       .  S
O589       Ni591   1.895       .  S
O589       Ni596   1.887       .  S
O590       Ni591   1.947       .  S
Ni591       O595   1.914       .  S
Ni591       O593   1.936       .  S
O592       Ni597   1.959       .  S
C594        O595   1.273       .  A
C594        C977   1.491       .  S
O599       Ni605   1.922       .  S
O599        C620   1.269       .  A
O600       Ni623   1.929       .  S
O600        C609   1.272       .  A
O601       Ni605   1.905       .  S
O601       Ni623   1.922       .  S
O601       Ni617   1.918       .  S
O601        H624   0.966       .  S
C602        O619   1.281       .  A
C602        O611   1.277       .  A
C602       C1424   1.481       .  S
O603       Ni622   1.929       .  S
O603        C609   1.272       .  A
O604       Ni622   1.910       .  S
O604        C606   1.270       .  A
Ni605       O608   1.916   1_556  S
Ni605       O610   1.903       .  S
C606        O616   1.275       .  A
C606        C965   1.496       .  S
O607       Ni623   1.909   1_554  S
O607        C613   1.271       .  A
O608        C613   1.272       .  A
C609       C1256   1.487       .  S
O610        C612   1.270   1_556  A
O611       Ni622   1.914       .  S
C612        O618   1.281   1_554  A
C612       C1508   1.491       .  S
C613       C1016   1.466       .  S
H614        O615   0.966       .  S
O615       Ni623   1.905       .  S
O615       Ni617   1.903       .  S
O615       Ni622   1.896       .  S
O616       Ni617   1.939       .  S
Ni617       O621   1.919       .  S
Ni617       O619   1.928       .  S
O618       Ni623   1.966       .  S
C620        O621   1.273       .  A
C620        C980   1.494       .  S
O625       Ni631   1.926       .  S
O625        C646   1.270       .  A
O626       Ni649   1.928       .  S
O626        C635   1.272       .  A
O627       Ni631   1.902       .  S
O627       Ni649   1.923   1_565  S
O627       Ni643   1.914       .  S
O627        H650   0.966       .  S
C628        O645   1.280   1_545  A
C628        O637   1.278       .  A
C628        C917   1.487       .  S
O629       Ni648   1.923       .  S
O629        C635   1.270       .  A
O630       Ni648   1.904       .  S
O630        C632   1.267       .  A
Ni631       O634   1.913       .  S
Ni631       O636   1.906       .  S
C632        O642   1.272   1_545  A
C632       C1484   1.483       .  S
O633       Ni649   1.907       .  S
O633        C639   1.272   1_545  A
O634        C639   1.273       .  A
C635       C1544   1.480       .  S
O636        C638   1.271       .  A
O637       Ni648   1.917       .  S
C638        O644   1.280   1_565  A
C638        C929   1.501       .  S
C639        C941   1.476   1_565  S
H640        O641   0.966       .  S
O641       Ni649   1.906       .  S
O641       Ni643   1.902   1_545  S
O641       Ni648   1.897       .  S
O642       Ni643   1.935       .  S
Ni643       O647   1.918       .  S
Ni643       O645   1.922       .  S
O644       Ni649   1.962       .  S
C646        O647   1.271       .  A
C646        C953   1.493       .  S
O651       Ni657   1.930       .  S
O651        C672   1.271       .  A
O652       Ni675   1.924       .  S
O652        C661   1.272       .  A
O653       Ni657   1.903       .  S
O653       Ni675   1.919       .  S
O653       Ni669   1.918       .  S
O653        H676   0.966       .  S
C654        O671   1.285       .  A
C654        O663   1.277       .  A
C654       C1064   1.487       .  S
O655       Ni674   1.925       .  S
O655        C661   1.270       .  A
O656       Ni674   1.912       .  S
O656        C658   1.269       .  A
Ni657       O660   1.922   1_556  S
Ni657       O662   1.901       .  S
C658        O668   1.273       .  A
C658       C1892   1.496       .  S
O659       Ni675   1.905   1_554  S
O659        C665   1.271       .  A
O660        C665   1.273       .  A
C661       C1589   1.477       .  S
O662        C664   1.270   1_556  A
O663       Ni674   1.909       .  S
C664        O670   1.280   1_554  A
C664       C1184   1.492       .  S
C665        C905   1.462       .  S
H666        O667   0.966       .  S
O667       Ni675   1.904       .  S
O667       Ni669   1.896       .  S
O667       Ni674   1.891       .  S
O668       Ni669   1.937       .  S
Ni669       O673   1.916       .  S
Ni669       O671   1.937       .  S
O670       Ni675   1.960       .  S
C672        O673   1.273       .  A
C672        C956   1.497       .  S
O677       Ni683   1.928       .  S
O677        C698   1.270       .  A
O678       Ni701   1.925       .  S
O678        C687   1.271       .  A
O679       Ni683   1.896       .  S
O679       Ni701   1.917   1_565  S
O679       Ni695   1.912       .  S
O679        H702   0.966       .  S
C680        O697   1.281   1_545  A
C680        O689   1.276       .  A
C680       C1457   1.478       .  S
O681       Ni700   1.930       .  S
O681        C687   1.270       .  A
O682       Ni700   1.906       .  S
O682        C684   1.268       .  A
Ni683       O686   1.914       .  S
Ni683       O688   1.897       .  S
C684        O694   1.270   1_545  A
C684        C884   1.489       .  S
O685       Ni701   1.899       .  S
O685        C691   1.269   1_545  A
O686        C691   1.274       .  A
C687       C1628   1.482       .  S
O688        C690   1.271       .  A
O689       Ni700   1.913       .  S
C690        O696   1.281   1_565  A
C690       C1412   1.505       .  S
C691        C944   1.459   1_565  S
H692        O693   0.966       .  S
O693       Ni701   1.904       .  S
O693       Ni695   1.908   1_545  S
O693       Ni700   1.900       .  S
O694       Ni695   1.929       .  S
Ni695       O699   1.917       .  S
Ni695       O697   1.926       .  S
O696       Ni701   1.957       .  S
C698        O699   1.271       .  A
C698        C893   1.494       .  S
O703       Ni709   1.932       .  S
O703        C724   1.272       .  A
O704       Ni727   1.924       .  S
O704        C713   1.272       .  A
O705       Ni709   1.902       .  S
O705       Ni727   1.918       .  S
O705       Ni721   1.915       .  S
O705        H728   0.966       .  S
C706        O723   1.280       .  A
C706        O715   1.279       .  A
C706       C1865   1.481       .  S
O707       Ni726   1.925       .  S
O707        C713   1.273       .  A
O708       Ni726   1.910       .  S
O708        C710   1.269       .  A
Ni709       O712   1.924       .  S
Ni709       O714   1.908       .  S
C710        O720   1.276       .  A
C710       C1076   1.501       .  S
O711       Ni727   1.912       .  S
O711        C717   1.274       .  A
O712        C717   1.275       .  A
C713       C1685   1.484       .  S
O714        C716   1.271       .  A
O715       Ni726   1.915       .  S
C716        O722   1.277       .  A
C716       C1781   1.491       .  S
C717        C908   1.481       .  S
H718        O719   0.966       .  S
O719       Ni727   1.906       .  S
O719       Ni721   1.894       .  S
O719       Ni726   1.885       .  S
O720       Ni721   1.941       .  S
Ni721       O725   1.911       .  S
Ni721       O723   1.927       .  S
O722       Ni727   1.952       .  S
C724        O725   1.271       .  A
C724        C896   1.497       .  S
O729       Ni735   1.919       .  S
O729        C750   1.272       .  A
O730       Ni753   1.911       .  S
O730        C739   1.272       .  A
O731       Ni735   1.884       .  S
O731       Ni753   1.890       .  S
O731       Ni747   1.902       .  S
O731        H754   0.966       .  S
C732        O749   1.274       .  A
C732        O741   1.270       .  A
C732        C857   1.477       .  S
O733       Ni752   1.919       .  S
O733        C739   1.268       .  A
O734       Ni752   1.901       .  S
O734        C736   1.270       .  A
Ni735       O738   1.909       .  S
Ni735       O740   1.909       .  S
C736        O746   1.282       .  A
C736        C968   1.491       .  S
O737       Ni753   1.933       .  S
O737        C743   1.284       .  A
O738        C743   1.277       .  A
C739        C872   1.487       .  S
O740        C742   1.268       .  A
O741       Ni752   1.909       .  S
C742        O748   1.273       .  A
C742       C1652   1.489       .  S
C743        C992   1.480       .  S
H744        O745   0.966       .  S
O745       Ni753   1.916       .  S
O745       Ni747   1.921       .  S
O745       Ni752   1.897       .  S
O746       Ni747   1.964       .  S
Ni747       O751   1.932       .  S
Ni747       O749   1.911       .  S
O748       Ni753   1.934       .  S
C750        O751   1.276       .  A
C750       C1088   1.488       .  S
O755       Ni761   1.929       .  S
O755        C776   1.272       .  A
O756       Ni779   1.909       .  S
O756        C765   1.271       .  A
O757       Ni761   1.891       .  S
O757       Ni779   1.897   1_565  S
O757       Ni773   1.904       .  S
O757        H780   0.966       .  S
C758        O775   1.272   1_545  A
C758        O767   1.272       .  A
C758        C848   1.475   1_545  S
O759       Ni778   1.920       .  S
O759        C765   1.269       .  A
O760       Ni778   1.899       .  S
O760        C762   1.269       .  A
Ni761       O764   1.916       .  S
Ni761       O766   1.910       .  S
C762        O772   1.279   1_545  A
C762       C1352   1.491       .  S
O763       Ni779   1.931       .  S
O763        C769   1.281   1_545  A
O764        C769   1.279       .  A
C765        C869   1.490       .  S
O766        C768   1.269       .  A
O767       Ni778   1.919       .  S
C768        O774   1.278   1_565  A
C768        C932   1.510       .  S
C769       C1268   1.484       .  S
H770        O771   0.966       .  S
O771       Ni779   1.924       .  S
O771       Ni773   1.921   1_545  S
O771       Ni778   1.909       .  S
O772       Ni773   1.961       .  S
Ni773       O777   1.919       .  S
Ni773       O775   1.915       .  S
O774       Ni779   1.952       .  S
C776        O777   1.270       .  A
C776       C1052   1.476       .  S
O781       Ni787   1.930       .  S
O781        C802   1.272       .  A
O782       Ni805   1.910       .  S
O782        C791   1.270       .  A
O783       Ni787   1.893       .  S
O783       Ni805   1.899       .  S
O783       Ni799   1.900       .  S
O783        H806   0.966       .  S
C784        O801   1.269       .  A
C784        O793   1.274       .  A
C784        C860   1.458       .  S
O785       Ni804   1.930       .  S
O785        C791   1.270       .  A
O786       Ni804   1.895       .  S
O786        C788   1.270   1_554  A
Ni787       O790   1.910       .  S
Ni787       O792   1.917       .  S
C788        O798   1.282   1_556  A
C788       C1565   1.503   1_655  S
O789       Ni805   1.929       .  S
O789        C795   1.281       .  A
O790        C795   1.279       .  A
C791        C836   1.496       .  S
O792        C794   1.271       .  A
O793       Ni804   1.915   1_556  S
C794        O800   1.272       .  A
C794       C1004   1.501       .  S
C795       C1640   1.486       .  S
H796        O797   0.968       .  S
O797       Ni805   1.913       .  S
O797       Ni799   1.921       .  S
O797       Ni804   1.900       .  S
O798       Ni799   1.963       .  S
Ni799       O803   1.925       .  S
Ni799       O801   1.900   1_554  S
O800       Ni805   1.937       .  S
C802        O803   1.273       .  A
C802       C1124   1.481       .  S
O807       Ni813   1.928       .  S
O807        C828   1.270       .  A
O808       Ni831   1.913       .  S
O808        C817   1.271       .  A
O809       Ni813   1.899       .  S
O809       Ni831   1.902   1_565  S
O809       Ni825   1.901       .  S
O809        H832   0.966       .  S
C810        O827   1.268       .  A
C810        O819   1.273   1_565  A
C810        C845   1.464       .  S
O811       Ni830   1.929       .  S
O811        C817   1.271       .  A
O812       Ni830   1.897       .  S
O812        C814   1.270       .  A
Ni813       O816   1.912       .  S
Ni813       O818   1.911       .  S
C814        O824   1.280   1_545  A
C814        C881   1.496   1_655  S
O815       Ni831   1.931       .  S
O815        C821   1.281   1_545  A
O816        C821   1.278       .  A
C817        C833   1.495       .  S
O818        C820   1.269       .  A
O819       Ni830   1.928       .  S
C820        O826   1.274   1_565  A
C820       C1280   1.498       .  S
C821        C920   1.488   1_655  S
H822        O823   0.966       .  S
O823       Ni831   1.924       .  S
O823       Ni825   1.923   1_545  S
O823       Ni830   1.908       .  S
O824       Ni825   1.962       .  S
Ni825       O829   1.920       .  S
Ni825       O827   1.902       .  S
O826       Ni831   1.940       .  S
C828        O829   1.270       .  A
C828       C1172   1.477       .  S
C833        C834   1.405       .  A
C833        C838   1.420       .  A
C834        C835   1.404       .  A
C834        H839   1.085       .  S
C835        C836   1.422       .  A
C835        C842   1.445       .  S
C836        C837   1.404       .  A
C837        C838   1.400       .  A
C837        H840   1.085       .  S
C838        C841   1.445       .  S
C841        N843   1.157       .  T
C842        N844   1.158       .  T
C845        C846   1.406       .  A
C845        C850   1.402   1_565  A
C846        C847   1.404       .  A
C846        H851   1.085       .  S
C847        C848   1.409       .  A
C847        C854   1.443       .  S
C848        C849   1.408   1_565  A
C849        C850   1.395       .  A
C849        H852   1.085       .  S
C850        C853   1.444       .  S
C853        N855   1.157       .  T
C854        N856   1.157       .  T
C857        C858   1.403       .  A
C857        C862   1.423       .  A
C858        C859   1.401       .  A
C858        H863   1.084       .  S
C859        C860   1.411       .  A
C859        C866   1.444       .  S
C860        C861   1.392       .  A
C861        C862   1.389       .  A
C861        H864   1.086       .  S
C862        C865   1.447       .  S
C865        N867   1.158       .  T
C866        N868   1.157       .  T
C869        C870   1.403       .  A
C869        C874   1.422       .  A
C870        C871   1.400       .  A
C870        H875   1.085       .  S
C871        C872   1.420       .  A
C871        C878   1.445       .  S
C872        C873   1.401       .  A
C873        C874   1.399       .  A
C873        H876   1.085       .  S
C874        C877   1.445       .  S
C877        N879   1.157       .  T
C878        N880   1.158       .  T
C881        C882   1.409       .  A
C881        C886   1.416   1_545  A
C882        C883   1.396       .  A
C882        H887   1.085       .  S
C883        C884   1.411       .  A
C883        C890   1.446       .  S
C884        C885   1.409   1_545  A
C885        C886   1.410       .  A
C885        H888   1.085       .  S
C886        C889   1.443       .  S
C889        N891   1.157       .  T
C890        N892   1.158       .  T
C893        C894   1.403       .  A
C893        C898   1.420       .  A
C894        C895   1.401       .  A
C894        H899   1.085       .  S
C895        C896   1.421       .  A
C895        C902   1.445       .  S
C896        C897   1.406       .  A
C897        C898   1.404       .  A
C897        H900   1.085       .  S
C898        C901   1.445       .  S
C901        N903   1.157       .  T
C902        N904   1.157       .  T
C905        C906   1.404       .  A
C905        C910   1.403       .  A
C906        C907   1.404       .  A
C906        H911   1.085       .  S
C907        C908   1.412       .  A
C907        C914   1.443       .  S
C908        C909   1.409       .  A
C909        C910   1.393       .  A
C909        H912   1.085       .  S
C910        C913   1.445       .  S
C913        N915   1.157       .  T
C914        N916   1.157       .  T
C917        C918   1.409       .  A
C917        C922   1.414   1_545  A
C918        C919   1.402   1_556  A
C918        H923   1.085       .  S
C919        C920   1.414   1_545  A
C919        C926   1.444       .  S
C920        C921   1.408       .  A
C921        C922   1.396   1_554  A
C921        H924   1.085   1_455  S
C922        C925   1.445       .  S
C925        N927   1.157       .  T
C926        N928   1.157       .  T
C929        C930   1.403   1_455  A
C929        C934   1.420   1_465  A
C930        C931   1.402       .  A
C930        H935   1.085       .  S
C931        C932   1.424       .  A
C931        C938   1.445       .  S
C932        C933   1.410   1_565  A
C933        C934   1.415       .  A
C933        H936   1.084       .  S
C934        C937   1.444   1_655  S
C937        N939   1.157       .  T
C938        N940   1.157       .  T
C941        C942   1.409   1_545  A
C941        C946   1.411       .  A
C942        C943   1.389       .  A
C942        H947   1.085       .  S
C943        C944   1.403   1_565  A
C943        C950   1.445       .  S
C944        C945   1.405       .  A
C945        C946   1.401       .  A
C945        H948   1.085       .  S
C946        C949   1.444       .  S
C949        N951   1.157       .  T
C950        N952   1.157       .  T
C953        C954   1.403       .  A
C953        C958   1.419       .  A
C954        C955   1.405       .  A
C954        H959   1.085       .  S
C955        C956   1.423       .  A
C955        C962   1.445       .  S
C956        C957   1.404       .  A
C957        C958   1.402       .  A
C957        H960   1.085       .  S
C958        C961   1.445       .  S
C961        N963   1.157       .  T
C962        N964   1.157   1_556  T
C965        C966   1.408       .  A
C965        C970   1.415       .  A
C966        C967   1.400       .  A
C966        H971   1.085       .  S
C967        C968   1.413       .  A
C967        C974   1.445       .  S
C968        C969   1.408       .  A
C969        C970   1.409       .  A
C969        H972   1.085       .  S
C970        C973   1.443       .  S
C973        N975   1.157       .  T
C974        N976   1.157       .  T
C977        C978   1.401       .  A
C977        C982   1.421       .  A
C978        C979   1.401       .  A
C978        H983   1.085       .  S
C979        C980   1.423       .  A
C979        C986   1.445       .  S
C980        C981   1.403       .  A
C981        C982   1.403       .  A
C981        H984   1.085       .  S
C982        C985   1.445       .  S
C985        N987   1.157       .  T
C986        N988   1.157       .  T
C989        C990   1.404       .  A
C989        C994   1.415       .  A
C990        C991   1.399       .  A
C990        H995   1.085       .  S
C991        C992   1.416       .  A
C991        C998   1.445       .  S
C992        C993   1.403       .  A
C993        C994   1.397       .  A
C993        H996   1.085       .  S
C994        C997   1.445       .  S
C997        N999   1.157       .  T
C998       N1000   1.157       .  T
C1001      C1002   1.408       .  A
C1001      C1006   1.413       .  A
C1002      C1003   1.410       .  A
C1002      H1007   1.084       .  S
C1003      C1004   1.418       .  A
C1003      C1010   1.443       .  S
C1004      C1005   1.409       .  A
C1005      C1006   1.403       .  A
C1005      H1008   1.085       .  S
C1006      C1009   1.445       .  S
C1009      N1011   1.157       .  T
C1010      N1012   1.157       .  T
C1013      C1014   1.405       .  A
C1013      C1018   1.403       .  A
C1014      C1015   1.400       .  A
C1014      H1019   1.084       .  S
C1015      C1016   1.407       .  A
C1015      C1022   1.444       .  S
C1016      C1017   1.405       .  A
C1017      C1018   1.392       .  A
C1017      H1020   1.085       .  S
C1018      C1021   1.444       .  S
C1021      N1023   1.157       .  T
C1022      N1024   1.157       .  T
C1025      C1026   1.404       .  A
C1025      C1030   1.401       .  A
C1026      C1027   1.405       .  A
C1026      H1031   1.085       .  S
C1027      C1028   1.415       .  A
C1027      C1034   1.444       .  S
C1028      C1029   1.409       .  A
C1029      C1030   1.390       .  A
C1029      H1032   1.085       .  S
C1030      C1033   1.445       .  S
C1033      N1035   1.157       .  T
C1034      N1036   1.157       .  T
C1037      C1038   1.404       .  A
C1037      C1042   1.418       .  A
C1038      C1039   1.404       .  A
C1038      H1043   1.085       .  S
C1039      C1040   1.422       .  A
C1039      C1046   1.445       .  S
C1040      C1041   1.405       .  A
C1041      C1042   1.402       .  A
C1041      H1044   1.085       .  S
C1042      C1045   1.445       .  S
C1045      N1047   1.157       .  T
C1046      N1048   1.157       .  T
C1049      C1050   1.404       .  A
C1049      C1054   1.409       .  A
C1050      C1051   1.403       .  A
C1050      H1055   1.085       .  S
C1051      C1052   1.410       .  A
C1051      C1058   1.443       .  S
C1052      C1053   1.404       .  A
C1053      C1054   1.402       .  A
C1053      H1056   1.085       .  S
C1054      C1057   1.443       .  S
C1057      N1059   1.157   1_655  T
C1058      N1060   1.157       .  T
C1061      C1062   1.402   1_655  A
C1061      C1066   1.420       .  A
C1062      C1063   1.397       .  A
C1062      H1067   1.085       .  S
C1063      C1064   1.420       .  A
C1063      C1070   1.445       .  S
C1064      C1065   1.403       .  A
C1065      C1066   1.400   1_455  A
C1065      H1068   1.085       .  S
C1066      C1069   1.445       .  S
C1069      N1071   1.157       .  T
C1070      N1072   1.157       .  T
C1073      C1074   1.404       .  A
C1073      C1078   1.417       .  A
C1074      C1075   1.400       .  A
C1074      H1079   1.085       .  S
C1075      C1076   1.421       .  A
C1075      C1082   1.446       .  S
C1076      C1077   1.409       .  A
C1077      C1078   1.411       .  A
C1077      H1080   1.084       .  S
C1078      C1081   1.443       .  S
C1081      N1083   1.157   1_455  T
C1082      N1084   1.158       .  T
C1085      C1086   1.399       .  A
C1085      C1090   1.412       .  A
C1086      C1087   1.399       .  A
C1086      H1091   1.085       .  S
C1087      C1088   1.418       .  A
C1087      C1094   1.446       .  S
C1088      C1089   1.406       .  A
C1089      C1090   1.410       .  A
C1089      H1092   1.084       .  S
C1090      C1093   1.443       .  S
C1093      N1095   1.157       .  T
C1094      N1096   1.158       .  T
C1097      C1098   1.410       .  A
C1097      C1102   1.413       .  A
C1098      C1099   1.411       .  A
C1098      H1103   1.085       .  S
C1099      C1100   1.415       .  A
C1099      C1106   1.443       .  S
C1100      C1101   1.408       .  A
C1101      C1102   1.401       .  A
C1101      H1104   1.085       .  S
C1102      C1105   1.444       .  S
C1105      N1107   1.157       .  T
C1106      N1108   1.157       .  T
C1109      C1110   1.406       .  A
C1109      C1114   1.428       .  A
C1110      C1111   1.406       .  A
C1110      H1115   1.084       .  S
C1111      C1112   1.419       .  A
C1111      C1118   1.444       .  S
C1112      C1113   1.399       .  A
C1113      C1114   1.404       .  A
C1113      H1116   1.085       .  S
C1114      C1117   1.445       .  S
C1117      N1119   1.158       .  T
C1118      N1120   1.157       .  T
C1121      C1122   1.404       .  A
C1121      C1126   1.415       .  A
C1122      C1123   1.407       .  A
C1122      H1127   1.085       .  S
C1123      C1124   1.412       .  A
C1123      C1130   1.443       .  S
C1124      C1125   1.402       .  A
C1125      C1126   1.404       .  A
C1125      H1128   1.085       .  S
C1126      C1129   1.445       .  S
C1129      N1131   1.157       .  T
C1130      N1132   1.157       .  T
C1133      C1134   1.404       .  A
C1133      C1138   1.417       .  A
C1134      C1135   1.399       .  A
C1134      H1139   1.085       .  S
C1135      C1136   1.418       .  A
C1135      C1142   1.445       .  S
C1136      C1137   1.404       .  A
C1137      C1138   1.400       .  A
C1137      H1140   1.085       .  S
C1138      C1141   1.444       .  S
C1141      N1143   1.157       .  T
C1142      N1144   1.158       .  T
C1145      C1146   1.411       .  A
C1145      C1150   1.410       .  A
C1146      C1147   1.411       .  A
C1146      H1151   1.085       .  S
C1147      C1148   1.414       .  A
C1147      C1154   1.443       .  S
C1148      C1149   1.410       .  A
C1149      C1150   1.399       .  A
C1149      H1152   1.085       .  S
C1150      C1153   1.445   1_556  S
C1153      N1155   1.157       .  T
C1154      N1156   1.157       .  T
C1157      C1158   1.403       .  A
C1157      C1162   1.425       .  A
C1158      C1159   1.402       .  A
C1158      H1163   1.084       .  S
C1159      C1160   1.413       .  A
C1159      C1166   1.442       .  S
C1160      C1161   1.396       .  A
C1161      C1162   1.394       .  A
C1161      H1164   1.086       .  S
C1162      C1165   1.447       .  S
C1165      N1167   1.158       .  T
C1166      N1168   1.157       .  T
C1169      C1170   1.403       .  A
C1169      C1174   1.413       .  A
C1170      C1171   1.406       .  A
C1170      H1175   1.085       .  S
C1171      C1172   1.412       .  A
C1171      C1178   1.443       .  S
C1172      C1173   1.401       .  A
C1173      C1174   1.403       .  A
C1173      H1176   1.085       .  S
C1174      C1177   1.444       .  S
C1177      N1179   1.157       .  T
C1178      N1180   1.157       .  T
C1181      C1182   1.407       .  A
C1181      C1186   1.417       .  A
C1182      C1183   1.396       .  A
C1182      H1187   1.085       .  S
C1183      C1184   1.412   1_655  A
C1183      C1190   1.445   1_554  S
C1184      C1185   1.410   1_455  A
C1185      C1186   1.413       .  A
C1185      H1188   1.084   1_655  S
C1186      C1189   1.443       .  S
C1189      N1191   1.158       .  T
C1190      N1192   1.157       .  T
C1193      C1194   1.403       .  A
C1193      C1198   1.406       .  A
C1194      C1195   1.398       .  A
C1194      H1199   1.084       .  S
C1195      C1196   1.407       .  A
C1195      C1202   1.443       .  S
C1196      C1197   1.406       .  A
C1197      C1198   1.397       .  A
C1197      H1200   1.085       .  S
C1198      C1201   1.444       .  S
C1201      N1203   1.157       .  T
C1202      N1204   1.157       .  T
C1205      C1206   1.408       .  A
C1205      C1210   1.413       .  A
C1206      C1207   1.404       .  A
C1206      H1211   1.085       .  S
C1207      C1208   1.416       .  A
C1207      C1214   1.444       .  S
C1208      C1209   1.411       .  A
C1209      C1210   1.402       .  A
C1209      H1212   1.084       .  S
C1210      C1213   1.444       .  S
C1213      N1215   1.157       .  T
C1214      N1216   1.157       .  T
C1217      C1218   1.405       .  A
C1217      C1222   1.407       .  A
C1218      C1219   1.406       .  A
C1218      H1223   1.085       .  S
C1219      C1220   1.410       .  A
C1219      C1226   1.443       .  S
C1220      C1221   1.405       .  A
C1221      C1222   1.401       .  A
C1221      H1224   1.083       .  S
C1222      C1225   1.445       .  S
C1225      N1227   1.157       .  T
C1226      N1228   1.157       .  T
C1229      C1230   1.404       .  A
C1229      C1234   1.416   1_556  A
C1230      C1231   1.402   1_556  A
C1230      H1235   1.085       .  S
C1231      C1232   1.416       .  A
C1231      C1238   1.445       .  S
C1232      C1233   1.402       .  A
C1233      C1234   1.400       .  A
C1233      H1236   1.085       .  S
C1234      C1237   1.444       .  S
C1237      N1239   1.157       .  T
C1238      N1240   1.157       .  T
C1241      C1242   1.411       .  A
C1241      C1246   1.416       .  A
C1242      C1243   1.414       .  A
C1242      H1247   1.084       .  S
C1243      C1244   1.416       .  A
C1243      C1250   1.443       .  S
C1244      C1245   1.409       .  A
C1245      C1246   1.400       .  A
C1245      H1248   1.085       .  S
C1246      C1249   1.446       .  S
C1249      N1251   1.157       .  T
C1250      N1252   1.157       .  T
C1253      C1254   1.401       .  A
C1253      C1258   1.413       .  A
C1254      C1255   1.402       .  A
C1254      H1259   1.085       .  S
C1255      C1256   1.413       .  A
C1255      C1262   1.445       .  S
C1256      C1257   1.406       .  A
C1257      C1258   1.410       .  A
C1257      H1260   1.084       .  S
C1258      C1261   1.444       .  S
C1261      N1263   1.157   1_556  T
C1262      N1264   1.157       .  T
C1265      C1266   1.407       .  A
C1265      C1270   1.412   1_545  A
C1266      C1267   1.403       .  A
C1266      H1271   1.084       .  S
C1267      C1268   1.413   1_545  A
C1267      C1274   1.444       .  S
C1268      C1269   1.406       .  A
C1269      C1270   1.397       .  A
C1269      H1272   1.085       .  S
C1270      C1273   1.445       .  S
C1273      N1275   1.157       .  T
C1274      N1276   1.157       .  T
C1277      C1278   1.403       .  A
C1277      C1282   1.418   1_565  A
C1278      C1279   1.402       .  A
C1278      H1283   1.085   1_554  S
C1279      C1280   1.418       .  A
C1279      C1286   1.445       .  S
C1280      C1281   1.407   1_565  A
C1281      C1282   1.411       .  A
C1281      H1284   1.084       .  S
C1282      C1285   1.444       .  S
C1285      N1287   1.157       .  T
C1286      N1288   1.157       .  T
C1289      C1290   1.409       .  A
C1289      C1294   1.413       .  A
C1290      C1291   1.401       .  A
C1290      H1295   1.085       .  S
C1291      C1292   1.414       .  A
C1291      C1298   1.445       .  S
C1292      C1293   1.411       .  A
C1293      C1294   1.402       .  A
C1293      H1296   1.084       .  S
C1294      C1297   1.444       .  S
C1297      N1299   1.157       .  T
C1298      N1300   1.157       .  T
C1301      C1302   1.400       .  A
C1301      C1306   1.412       .  A
C1302      C1303   1.401       .  A
C1302      H1307   1.085       .  S
C1303      C1304   1.412       .  A
C1303      C1310   1.445       .  S
C1304      C1305   1.404       .  A
C1305      C1306   1.407       .  A
C1305      H1308   1.084       .  S
C1306      C1309   1.444       .  S
C1309      N1311   1.157       .  T
C1310      N1312   1.157       .  T
C1313      C1314   1.411       .  A
C1313      C1318   1.420       .  A
C1314      C1315   1.417       .  A
C1314      H1319   1.084       .  S
C1315      C1316   1.420       .  A
C1315      C1322   1.443       .  S
C1316      C1317   1.403       .  A
C1317      C1318   1.398       .  A
C1317      H1320   1.085       .  S
C1318      C1321   1.445       .  S
C1321      N1323   1.157       .  T
C1322      N1324   1.158       .  T
C1325      C1326   1.404       .  A
C1325      C1330   1.406       .  A
C1326      C1327   1.395       .  A
C1326      H1331   1.084       .  S
C1327      C1328   1.405       .  A
C1327      C1334   1.444       .  S
C1328      C1329   1.404       .  A
C1329      C1330   1.397       .  A
C1329      H1332   1.085       .  S
C1330      C1333   1.444       .  S
C1333      N1335   1.157       .  T
C1334      N1336   1.157       .  T
C1337      C1338   1.407       .  A
C1337      C1342   1.410       .  A
C1338      C1339   1.409       .  A
C1338      H1343   1.085       .  S
C1339      C1340   1.411       .  A
C1339      C1346   1.443       .  S
C1340      C1341   1.406       .  A
C1341      C1342   1.405       .  A
C1341      H1344   1.085       .  S
C1342      C1345   1.444       .  S
C1345      N1347   1.157       .  T
C1346      N1348   1.157       .  T
C1349      C1350   1.408   1_545  A
C1349      C1354   1.411       .  A
C1350      C1351   1.411       .  A
C1350      H1355   1.085       .  S
C1351      C1352   1.413   1_565  A
C1351      C1358   1.442       .  S
C1352      C1353   1.407       .  A
C1353      C1354   1.397       .  A
C1353      H1356   1.085       .  S
C1354      C1357   1.446       .  S
C1357      N1359   1.157       .  T
C1358      N1360   1.157       .  T
C1361      C1362   1.397       .  A
C1361      C1366   1.410   1_565  A
C1362      C1363   1.394       .  A
C1362      H1367   1.086       .  S
C1363      C1364   1.425       .  A
C1363      C1370   1.447       .  S
C1364      C1365   1.409   1_565  A
C1365      C1366   1.408       .  A
C1365      H1368   1.084       .  S
C1366      C1369   1.443       .  S
C1369      N1371   1.157       .  T
C1370      N1372   1.158       .  T
C1373      C1374   1.400       .  A
C1373      C1378   1.413       .  A
C1374      C1375   1.401       .  A
C1374      H1379   1.085       .  S
C1375      C1376   1.423       .  A
C1375      C1382   1.444       .  S
C1376      C1377   1.407       .  A
C1377      C1378   1.401       .  A
C1377      H1380   1.084       .  S
C1378      C1381   1.445       .  S
C1381      N1383   1.157       .  T
C1382      N1384   1.157       .  T
C1385      C1386   1.404   1_545  A
C1385      C1390   1.415       .  A
C1386      C1387   1.400       .  A
C1386      H1391   1.085       .  S
C1387      C1388   1.418       .  A
C1387      C1394   1.445       .  S
C1388      C1389   1.403   1_565  A
C1389      C1390   1.398       .  A
C1389      H1392   1.085       .  S
C1390      C1393   1.444       .  S
C1393      N1395   1.157       .  T
C1394      N1396   1.158       .  T
C1397      C1398   1.407   1_545  A
C1397      C1402   1.421       .  A
C1398      C1399   1.411       .  A
C1398      H1403   1.084       .  S
C1399      C1400   1.419   1_565  A
C1399      C1406   1.443       .  S
C1400      C1401   1.404       .  A
C1401      C1402   1.402       .  A
C1401      H1404   1.085       .  S
C1402      C1405   1.445       .  S
C1405      N1407   1.157       .  T
C1406      N1408   1.157       .  T
C1409      C1410   1.411   1_565  A
C1409      C1414   1.413       .  A
C1410      C1411   1.416       .  A
C1410      H1415   1.084       .  S
C1411      C1412   1.418   1_545  A
C1411      C1418   1.442       .  S
C1412      C1413   1.409       .  A
C1413      C1414   1.395       .  A
C1413      H1416   1.084       .  S
C1414      C1417   1.446       .  S
C1417      N1419   1.157       .  T
C1418      N1420   1.157       .  T
C1421      C1422   1.400       .  A
C1421      C1426   1.415       .  A
C1422      C1423   1.397       .  A
C1422      H1427   1.080       .  S
C1423      C1424   1.414       .  A
C1423      C1430   1.444       .  S
C1424      C1425   1.405       .  A
C1425      C1426   1.400       .  A
C1425      H1428   1.085       .  S
C1426      C1429   1.445       .  S
C1429      N1431   1.157       .  T
C1430      N1432   1.157       .  T
C1433      C1434   1.409       .  A
C1433      C1438   1.420       .  A
C1434      C1435   1.397       .  A
C1434      H1439   1.084       .  S
C1435      C1436   1.415       .  A
C1435      C1442   1.446       .  S
C1436      C1437   1.409       .  A
C1437      C1438   1.415       .  A
C1437      H1440   1.084       .  S
C1438      C1441   1.443       .  S
C1441      N1443   1.157       .  T
C1442      N1444   1.157       .  T
C1445      C1446   1.413       .  A
C1445      C1450   1.416       .  A
C1446      C1447   1.406       .  A
C1446      H1451   1.084       .  S
C1447      C1448   1.412       .  A
C1447      C1454   1.444       .  S
C1448      C1449   1.407       .  A
C1449      C1450   1.401       .  A
C1449      H1452   1.085       .  S
C1450      C1453   1.442       .  S
C1453      N1455   1.157       .  T
C1454      N1456   1.157       .  T
C1457      C1458   1.403   1_545  A
C1457      C1462   1.413       .  A
C1458      C1459   1.400       .  A
C1458      H1463   1.085       .  S
C1459      C1460   1.414       .  A
C1459      C1466   1.444       .  S
C1460      C1461   1.404   1_565  A
C1461      C1462   1.398       .  A
C1461      H1464   1.085       .  S
C1462      C1465   1.445       .  S
C1465      N1467   1.157       .  T
C1466      N1468   1.157       .  T
C1469      C1470   1.409       .  A
C1469      C1474   1.420   1_565  A
C1470      C1471   1.401       .  A
C1470      H1475   1.084       .  S
C1471      C1472   1.414       .  A
C1471      C1478   1.445       .  S
C1472      C1473   1.405   1_565  A
C1473      C1474   1.408       .  A
C1473      H1476   1.084       .  S
C1474      C1477   1.444       .  S
C1477      N1479   1.157       .  T
C1478      N1480   1.157       .  T
C1481      C1482   1.405       .  A
C1481      C1486   1.411   1_545  A
C1482      C1483   1.395       .  A
C1482      H1487   1.085       .  S
C1483      C1484   1.410       .  A
C1483      C1490   1.445       .  S
C1484      C1485   1.409   1_545  A
C1485      C1486   1.410       .  A
C1485      H1488   1.085       .  S
C1486      C1489   1.443   1_556  S
C1489      N1491   1.157       .  T
C1490      N1492   1.157       .  T
C1493      C1494   1.408   1_565  A
C1493      C1498   1.411       .  A
C1494      C1495   1.396       .  A
C1494      H1499   1.085       .  S
C1495      C1496   1.404   1_545  A
C1495      C1502   1.445       .  S
C1496      C1497   1.404       .  A
C1497      C1498   1.402       .  A
C1497      H1500   1.085       .  S
C1498      C1501   1.444       .  S
C1501      N1503   1.157       .  T
C1502      N1504   1.157       .  T
C1505      C1506   1.409       .  A
C1505      C1510   1.415       .  A
C1506      C1507   1.401       .  A
C1506      H1511   1.085       .  S
C1507      C1508   1.411       .  A
C1507      C1514   1.445   1_554  S
C1508      C1509   1.409       .  A
C1509      C1510   1.412       .  A
C1509      H1512   1.084       .  S
C1510      C1513   1.443       .  S
C1513      N1515   1.157       .  T
C1514      N1516   1.157       .  T
C1517      C1518   1.411       .  A
C1517      C1522   1.414       .  A
C1518      C1519   1.392       .  A
C1518      H1523   1.085       .  S
C1519      C1520   1.402       .  A
C1519      C1526   1.445       .  S
C1520      C1521   1.403       .  A
C1521      C1522   1.403       .  A
C1521      H1524   1.085       .  S
C1522      C1525   1.443       .  S
C1525      N1527   1.157       .  T
C1526      N1528   1.157       .  T
C1529      C1530   1.406       .  A
C1529      C1534   1.422       .  A
C1530      C1531   1.400       .  A
C1530      H1535   1.085       .  S
C1531      C1532   1.416       .  A
C1531      C1538   1.444       .  S
C1532      C1533   1.403       .  A
C1533      C1534   1.400       .  A
C1533      H1536   1.085       .  S
C1534      C1537   1.445       .  S
C1537      N1539   1.158       .  T
C1538      N1540   1.157       .  T
C1541      C1542   1.406       .  A
C1541      C1546   1.408       .  A
C1542      C1543   1.406       .  A
C1542      H1547   1.085       .  S
C1543      C1544   1.411       .  A
C1543      C1550   1.443       .  S
C1544      C1545   1.405       .  A
C1545      C1546   1.401       .  A
C1545      H1548   1.085       .  S
C1546      C1549   1.444       .  S
C1549      N1551   1.157       .  T
C1550      N1552   1.157       .  T
C1553      C1554   1.410       .  A
C1553      C1558   1.414       .  A
C1554      C1555   1.401   1_556  A
C1554      H1559   1.084       .  S
C1555      C1556   1.415       .  A
C1555      C1562   1.445       .  S
C1556      C1557   1.409       .  A
C1557      C1558   1.401   1_554  A
C1557      H1560   1.084       .  S
C1558      C1561   1.444       .  S
C1561      N1563   1.157       .  T
C1562      N1564   1.158       .  T
C1565      C1566   1.412       .  A
C1565      C1570   1.416       .  A
C1566      C1567   1.397       .  A
C1566      H1571   1.085       .  S
C1567      C1568   1.410       .  A
C1567      C1574   1.446       .  S
C1568      C1569   1.410       .  A
C1569      C1570   1.413       .  A
C1569      H1572   1.085       .  S
C1570      C1573   1.442       .  S
C1573      N1575   1.157   1_556  T
C1574      N1576   1.157       .  T
C1577      C1578   1.408       .  A
C1577      C1582   1.415       .  A
C1578      C1579   1.395       .  A
C1578      H1583   1.085       .  S
C1579      C1580   1.409       .  A
C1579      C1586   1.445       .  S
C1580      C1581   1.410       .  A
C1581      C1582   1.412       .  A
C1581      H1584   1.084       .  S
C1582      C1585   1.443       .  S
C1585      N1587   1.157       .  T
C1586      N1588   1.157       .  T
C1589      C1590   1.406       .  A
C1589      C1594   1.409       .  A
C1590      C1591   1.406       .  A
C1590      H1595   1.085       .  S
C1591      C1592   1.410       .  A
C1591      C1598   1.444       .  S
C1592      C1593   1.405       .  A
C1593      C1594   1.402       .  A
C1593      H1596   1.085       .  S
C1594      C1597   1.444       .  S
C1597      N1599   1.157       .  T
C1598      N1600   1.157       .  T
C1601      C1602   1.411       .  A
C1601      C1606   1.419       .  A
C1602      C1603   1.397       .  A
C1602      H1607   1.084       .  S
C1603      C1604   1.413       .  A
C1603      C1610   1.446       .  S
C1604      C1605   1.408       .  A
C1605      C1606   1.412       .  A
C1605      H1608   1.082       .  S
C1606      C1609   1.443       .  S
C1609      N1611   1.157       .  T
C1610      N1612   1.157       .  T
C1613      C1614   1.404       .  A
C1613      C1618   1.421       .  A
C1614      C1615   1.403       .  A
C1614      H1619   1.084       .  S
C1615      C1616   1.419       .  A
C1615      C1622   1.445       .  S
C1616      C1617   1.403       .  A
C1617      C1618   1.403       .  A
C1617      H1620   1.085       .  S
C1618      C1621   1.445       .  S
C1621      N1623   1.157       .  T
C1622      N1624   1.157       .  T
C1625      C1626   1.404       .  A
C1625      C1630   1.410       .  A
C1626      C1627   1.405       .  A
C1626      H1631   1.085       .  S
C1627      C1628   1.410       .  A
C1627      C1634   1.442       .  S
C1628      C1629   1.406       .  A
C1629      C1630   1.405       .  A
C1629      H1632   1.085       .  S
C1630      C1633   1.444       .  S
C1633      N1635   1.157       .  T
C1634      N1636   1.157       .  T
C1637      C1638   1.409       .  A
C1637      C1642   1.411       .  A
C1638      C1639   1.403       .  A
C1638      H1643   1.084       .  S
C1639      C1640   1.414   1_455  A
C1639      C1646   1.445       .  S
C1640      C1641   1.408       .  A
C1641      C1642   1.395   1_655  A
C1641      H1644   1.085       .  S
C1642      C1645   1.445       .  S
C1645      N1647   1.157       .  T
C1646      N1648   1.158       .  T
C1649      C1650   1.401       .  A
C1649      C1654   1.417       .  A
C1650      C1651   1.400       .  A
C1650      H1655   1.085       .  S
C1651      C1652   1.418       .  A
C1651      C1658   1.445       .  S
C1652      C1653   1.404       .  A
C1653      C1654   1.406       .  A
C1653      H1656   1.085       .  S
C1654      C1657   1.443   1_655  S
C1657      N1659   1.157       .  T
C1658      N1660   1.157       .  T
C1661      C1662   1.405       .  A
C1661      C1666   1.422       .  A
C1662      C1663   1.408       .  A
C1662      H1667   1.084       .  S
C1663      C1664   1.419       .  A
C1663      C1670   1.443       .  S
C1664      C1665   1.403       .  A
C1665      C1666   1.401       .  A
C1665      H1668   1.085       .  S
C1666      C1669   1.446       .  S
C1669      N1671   1.158       .  T
C1670      N1672   1.157       .  T
C1673      C1674   1.394       .  A
C1673      C1678   1.411       .  A
C1674      C1675   1.392       .  A
C1674      H1679   1.086       .  S
C1675      C1676   1.424       .  A
C1675      C1682   1.447       .  S
C1676      C1677   1.408       .  A
C1677      C1678   1.407       .  A
C1677      H1680   1.084       .  S
C1678      C1681   1.444       .  S
C1681      N1683   1.157       .  T
C1682      N1684   1.158       .  T
C1685      C1686   1.404       .  A
C1685      C1690   1.414       .  A
C1686      C1687   1.397       .  A
C1686      H1691   1.085       .  S
C1687      C1688   1.408       .  A
C1687      C1694   1.444       .  S
C1688      C1689   1.406       .  A
C1689      C1690   1.410       .  A
C1689      H1692   1.085       .  S
C1690      C1693   1.443       .  S
C1693      N1695   1.157       .  T
C1694      N1696   1.157       .  T
C1697      C1698   1.401       .  A
C1697      C1702   1.421       .  A
C1698      C1699   1.400   1_455  A
C1698      H1703   1.085       .  S
C1699      C1700   1.420   1_655  A
C1699      C1706   1.445       .  S
C1700      C1701   1.402       .  A
C1701      C1702   1.400       .  A
C1701      H1704   1.085       .  S
C1702      C1705   1.445       .  S
C1705      N1707   1.158       .  T
C1706      N1708   1.157       .  T
C1709      C1710   1.410       .  A
C1709      C1714   1.418       .  A
C1710      C1711   1.399       .  A
C1710      H1715   1.085       .  S
C1711      C1712   1.410   1_655  A
C1711      C1718   1.446       .  S
C1712      C1713   1.407       .  A
C1713      C1714   1.410   1_455  A
C1713      H1716   1.085       .  S
C1714      C1717   1.443       .  S
C1717      N1719   1.157       .  T
C1718      N1720   1.157       .  T
C1721      C1722   1.404       .  A
C1721      C1726   1.404       .  A
C1722      C1723   1.402       .  A
C1722      H1727   1.085       .  S
C1723      C1724   1.411       .  A
C1723      C1730   1.443       .  S
C1724      C1725   1.410       .  A
C1725      C1726   1.395       .  A
C1725      H1728   1.085       .  S
C1726      C1729   1.445       .  S
C1729      N1731   1.157       .  T
C1730      N1732   1.157       .  T
C1733      C1734   1.402       .  A
C1733      C1738   1.421       .  A
C1734      C1735   1.404       .  A
C1734      H1739   1.085       .  S
C1735      C1736   1.423       .  A
C1735      C1742   1.445       .  S
C1736      C1737   1.403       .  A
C1737      C1738   1.406       .  A
C1737      H1740   1.085       .  S
C1738      C1741   1.444       .  S
C1741      N1743   1.157       .  T
C1742      N1744   1.158       .  T
C1745      C1746   1.404       .  A
C1745      C1750   1.407       .  A
C1746      C1747   1.407       .  A
C1746      H1751   1.085       .  S
C1747      C1748   1.412       .  A
C1747      C1754   1.443       .  S
C1748      C1749   1.405       .  A
C1749      C1750   1.396       .  A
C1749      H1752   1.085       .  S
C1750      C1753   1.446       .  S
C1753      N1755   1.157       .  T
C1754      N1756   1.157   1_554  T
C1757      C1758   1.407       .  A
C1757      C1762   1.415       .  A
C1758      C1759   1.399       .  A
C1758      H1763   1.085       .  S
C1759      C1760   1.413       .  A
C1759      C1766   1.445       .  S
C1760      C1761   1.405       .  A
C1761      C1762   1.400       .  A
C1761      H1764   1.085       .  S
C1762      C1765   1.444       .  S
C1765      N1767   1.157       .  T
C1766      N1768   1.157       .  T
C1769      C1770   1.408       .  A
C1769      C1774   1.410       .  A
C1770      C1771   1.412       .  A
C1770      H1775   1.085       .  S
C1771      C1772   1.414       .  A
C1771      C1778   1.443   1_556  S
C1772      C1773   1.407       .  A
C1773      C1774   1.396       .  A
C1773      H1776   1.085       .  S
C1774      C1777   1.444       .  S
C1777      N1779   1.157       .  T
C1778      N1780   1.157       .  T
C1781      C1782   1.402       .  A
C1781      C1786   1.418       .  A
C1782      C1783   1.400       .  A
C1782      H1787   1.085       .  S
C1783      C1784   1.419       .  A
C1783      C1790   1.445       .  S
C1784      C1785   1.407       .  A
C1785      C1786   1.409       .  A
C1785      H1788   1.084       .  S
C1786      C1789   1.444       .  S
C1789      N1791   1.157       .  T
C1790      N1792   1.157       .  T
C1793      C1794   1.405       .  A
C1793      C1798   1.411       .  A
C1794      C1795   1.398       .  A
C1794      H1799   1.085       .  S
C1795      C1796   1.407       .  A
C1795      C1802   1.445       .  S
C1796      C1797   1.405       .  A
C1797      C1798   1.407       .  A
C1797      H1800   1.085       .  S
C1798      C1801   1.443       .  S
C1801      N1803   1.157       .  T
C1802      N1804   1.157       .  T
C1805      C1806   1.404       .  A
C1805      C1810   1.414       .  A
C1806      C1807   1.401   1_554  A
C1806      H1811   1.085       .  S
C1807      C1808   1.415       .  A
C1807      C1814   1.444       .  S
C1808      C1809   1.405       .  A
C1809      C1810   1.401   1_556  A
C1809      H1812   1.085       .  S
C1810      C1813   1.445       .  S
C1813      N1815   1.157       .  T
C1814      N1816   1.157       .  T
C1817      C1818   1.408       .  A
C1817      C1822   1.421       .  A
C1818      C1819   1.410       .  A
C1818      H1823   1.084       .  S
C1819      C1820   1.419       .  A
C1819      C1826   1.444       .  S
C1820      C1821   1.402       .  A
C1821      C1822   1.400       .  A
C1821      H1824   1.085   1_554  S
C1822      C1825   1.445       .  S
C1825      N1827   1.157       .  T
C1826      N1828   1.158       .  T
C1829      C1830   1.410       .  A
C1829      C1834   1.418       .  A
C1830      C1831   1.402       .  A
C1830      H1835   1.085       .  S
C1831      C1832   1.414       .  A
C1831      C1838   1.446       .  S
C1832      C1833   1.408       .  A
C1833      C1834   1.410       .  A
C1833      H1836   1.084       .  S
C1834      C1837   1.443       .  S
C1837      N1839   1.157       .  T
C1838      N1840   1.158       .  T
C1841      C1842   1.402       .  A
C1841      C1846   1.408       .  A
C1842      C1843   1.399       .  A
C1842      H1847   1.085       .  S
C1843      C1844   1.415       .  A
C1843      C1850   1.445       .  S
C1844      C1845   1.408       .  A
C1845      C1846   1.403       .  A
C1845      H1848   1.084       .  S
C1846      C1849   1.444       .  S
C1849      N1851   1.157       .  T
C1850      N1852   1.157       .  T
C1853      C1854   1.405       .  A
C1853      C1858   1.410       .  A
C1854      C1855   1.403       .  A
C1854      H1859   1.085       .  S
C1855      C1856   1.408       .  A
C1855      C1862   1.444       .  S
C1856      C1857   1.406       .  A
C1857      C1858   1.405       .  A
C1857      H1860   1.085       .  S
C1858      C1861   1.444       .  S
C1861      N1863   1.157       .  T
C1862      N1864   1.157       .  T
C1865      C1866   1.406       .  A
C1865      C1870   1.413       .  A
C1866      C1867   1.397       .  A
C1866      H1871   1.085       .  S
C1867      C1868   1.413       .  A
C1867      C1874   1.445       .  S
C1868      C1869   1.407       .  A
C1869      C1870   1.399       .  A
C1869      H1872   1.085       .  S
C1870      C1873   1.445       .  S
C1873      N1875   1.157       .  T
C1874      N1876   1.157       .  T
C1877      C1878   1.411       .  A
C1877      C1882   1.416       .  A
C1878      C1879   1.404       .  A
C1878      H1883   1.085       .  S
C1879      C1880   1.413       .  A
C1879      C1886   1.445       .  S
C1880      C1881   1.410       .  A
C1881      C1882   1.412       .  A
C1881      H1884   1.084       .  S
C1882      C1885   1.443       .  S
C1885      N1887   1.157       .  T
C1886      N1888   1.157       .  T
C1889      C1890   1.408       .  A
C1889      C1894   1.411       .  A
C1890      C1891   1.409       .  A
C1890      H1895   1.085       .  S
C1891      C1892   1.415       .  A
C1891      C1898   1.443       .  S
C1892      C1893   1.409       .  A
C1893      C1894   1.402       .  A
C1893      H1896   1.085       .  S
C1894      C1897   1.445       .  S
C1897      N1899   1.157       .  T
C1898      N1900   1.157       .  T
C1901      C1902   1.395       .  A
C1901      C1906   1.414       .  A
C1902      C1903   1.395       .  A
C1902      H1907   1.085       .  S
C1903      C1904   1.422       .  A
C1903      C1910   1.446       .  S
C1904      C1905   1.403       .  A
C1905      C1906   1.404       .  A
C1905      H1908   1.085       .  S
C1906      C1909   1.444       .  S
C1909      N1911   1.157       .  T
C1910      N1912   1.157       .  T
C1913      C1914   1.407       .  A
C1913      C1918   1.414       .  A
C1914      C1915   1.411       .  A
C1914      H1919   1.084       .  S
C1915      C1916   1.413       .  A
C1915      C1922   1.444       .  S
C1916      C1917   1.399       .  A
C1917      C1918   1.400       .  A
C1917      H1920   1.085       .  S
C1918      C1921   1.445       .  S
C1921      N1923   1.157       .  T
C1922      N1924   1.157       .  T
C1925      C1926   1.407       .  A
C1925      C1930   1.413       .  A
C1926      C1927   1.400       .  A
C1926      H1931   1.085       .  S
C1927      C1928   1.414       .  A
C1927      C1934   1.445       .  S
C1928      C1929   1.408       .  A
C1929      C1930   1.399       .  A
C1929      H1932   1.084       .  S
C1930      C1933   1.445       .  S
C1933      N1935   1.157       .  T
C1934      N1936   1.157       .  T
C1937      C1938   1.406       .  A
C1937      C1942   1.419       .  A
C1938      C1939   1.412       .  A
C1938      H1943   1.084       .  S
C1939      C1940   1.419       .  A
C1939      C1946   1.443       .  S
C1940      C1941   1.402       .  A
C1941      C1942   1.402       .  A
C1941      H1944   1.085       .  S
C1942      C1945   1.445       .  S
C1945      N1947   1.157       .  T
C1946      N1948   1.157       .  T
C1949      C1950   1.408       .  A
C1949      C1954   1.411       .  A
C1950      C1951   1.408       .  A
C1950      H1955   1.085       .  S
C1951      C1952   1.415       .  A
C1951      C1958   1.444       .  S
C1952      C1953   1.407       .  A
C1953      C1954   1.400       .  A
C1953      H1956   1.085       .  S
C1954      C1957   1.445       .  S
C1957      N1959   1.157       .  T
C1958      N1960   1.157       .  T
C1961      C1962   1.408       .  A
C1961      C1966   1.409       .  A
C1962      C1963   1.399       .  A
C1962      H1967   1.085       .  S
C1963      C1964   1.406       .  A
C1963      C1970   1.445       .  S
C1964      C1965   1.405       .  A
C1965      C1966   1.401       .  A
C1965      H1968   1.084       .  S
C1966      C1969   1.443       .  S
C1969      N1971   1.157       .  T
C1970      N1972   1.157       .  T
C1973      C1974   1.403       .  A
C1973      C1978   1.421       .  A
C1974      C1975   1.404       .  A
C1974      H1979   1.085       .  S
C1975      C1976   1.424       .  A
C1975      C1982   1.444       .  S
C1976      C1977   1.405       .  A
C1977      C1978   1.404       .  A
C1977      H1980   1.085       .  S
C1978      C1981   1.445       .  S
C1981      N1983   1.157       .  T
C1982      N1984   1.157       .  T
