geometry optimzed in LAMMPS
_audit_creation_date              2020-12-01 
_audit_creation_method            'lammps2cif' 
_symmetry_space_group_name_H-M    'P1' 
_symmetry_Int_Tables_number       1 
_symmetry_cell_setting            triclinic 
loop_ 
_symmetry_equiv_pos_as_xyz 
  x,y,z 
_cell_length_a                    66.91830313 
_cell_length_b                    26.960252862121067 
_cell_length_c                    33.593515851250324 
_cell_angle_alpha                 90.01716341860124 
_cell_angle_beta                  89.88440894102338 
_cell_angle_gamma                 89.94425099804295 
loop_ 
_atom_site_label 
_atom_site_type_symbol 
_atom_site_fract_x 
_atom_site_fract_y 
_atom_site_fract_z 
_atom_site_charge 
O1          O  0.80230837  0.78281085  0.77919820    -0.85500
O2          O  0.77817570  0.71455331  0.74551733    -0.82600
C3          C  0.76133072  0.72908235  0.75909335     0.97900
O4          O  0.75354551  0.76824288  0.74573763    -0.82600
O5          O  0.74956862  0.86133144  0.71014991    -0.85200
C6          C  0.75656543  0.89080123  0.73589013     1.02500
O7          O  0.77310330  0.88160670  0.75101146    -0.78000
O8          O  0.81137917  0.85729147  0.76137590    -0.78200
C9          C  0.80851092  0.82521864  0.78831404     1.02400
O10         O  0.82731368  0.79193942  0.70909180    -0.85500
O11         O  0.80014635  0.72760859  0.67144913    -0.82600
C12         C  0.78392597  0.70923099  0.65938106     0.98000
O13         O  0.76736073  0.72694256  0.67134870    -0.82600
O14         O  0.76673195  0.82199278  0.63998765    -0.85200
C15         C  0.77002478  0.86790155  0.63662373     1.02400
O16         O  0.77853212  0.89145527  0.66475116    -0.78000
O17         O  0.81635790  0.85632866  0.67599573    -0.78200
C18         C  0.83069310  0.83005754  0.68751858     1.02400
Cr19       Cr  0.80112203  0.75735054  0.72476552     1.93700
Cr20       Cr  0.76099033  0.79491641  0.69318471     1.93200
Cr21       Cr  0.79425020  0.86771570  0.71283937     1.39100
O22         O  0.78569873  0.80648941  0.70930838    -1.23300
O23         O  0.93862703  0.94434496  0.78315718    -0.85500
O24         O  0.96263712  0.01815511  0.75349565    -0.82600
C25         C  0.97991715  0.00509046  0.76541263     0.97900
O26         O  0.98786146  0.96645819  0.75125540    -0.82600
O27         O  0.99236895  0.87430539  0.71378941    -0.85200
C28         C  0.98489443  0.84280081  0.73744601     1.02500
O29         O  0.96766623  0.84917208  0.75053813    -0.78000
O30         O  0.92923465  0.87287736  0.75913093    -0.78200
C31         C  0.93177610  0.90142018  0.78855594     1.02400
O32         O  0.91445260  0.94202020  0.71161195    -0.85500
O33         O  0.94156110  0.01100638  0.67911944    -0.82600
C34         C  0.95792959  0.02888484  0.66711451     0.98000
O35         O  0.97444977  0.00942085  0.67742420    -0.82600
O36         O  0.97684184  0.91549514  0.64283316    -0.85200
C37         C  0.97382889  0.86961154  0.63796135     1.02400
O38         O  0.96424775  0.84543949  0.66431890    -0.78000
O39         O  0.92594380  0.88171956  0.67422088    -0.78200
C40         C  0.91139711  0.90617079  0.68751380     1.02400
Cr41       Cr  0.94029632  0.97564832  0.73022251     1.93700
Cr42       Cr  0.98103128  0.94100048  0.69764152     1.93200
Cr43       Cr  0.94741336  0.86664672  0.71170861     1.39100
O44         O  0.95607779  0.92814791  0.71211966    -1.23300
O45         O  0.81393075  0.91507662  0.96730754    -0.85500
O46         O  0.78621436  0.99002938  0.96489836    -0.82600
C47         C  0.76803611  0.00253941  0.96699810     0.97900
O48         O  0.75758196  0.99050571  0.99656961    -0.82600
O49         O  0.74912654  0.89161718  0.00026053    -0.85200
C50         C  0.75188613  0.84596098  0.00559376     1.02500
O51         O  0.76461070  0.83168225  0.02999301    -0.78000
O52         O  0.79466191  0.84950078  0.97594135    -0.78200
C53         C  0.80601062  0.87559497  0.95426355     1.02400
O54         O  0.82520849  0.94314583  0.04744741    -0.85500
O55         O  0.79660102  0.01813318  0.04473400    -0.82600
C56         C  0.78357705  0.02331603  0.07180524     0.98000
O57         O  0.76982442  0.99179434  0.07713572    -0.82600
O58         O  0.75815432  0.89432315  0.08597501    -0.85200
C59         C  0.77060967  0.86925134  0.10621809     1.02400
O60         O  0.78809388  0.86122733  0.09287100    -0.78000
O61         O  0.82059286  0.86401902  0.03946028    -0.78200
C62         C  0.83158440  0.89907926  0.04986285     1.02400
Cr63       Cr  0.80391273  0.96306221  0.00809955     1.93700
Cr64       Cr  0.76078079  0.94036797  0.03914108     1.93200
Cr65       Cr  0.79166585  0.85746692  0.03410208     1.39100
O66         O  0.78563969  0.92130670  0.02765283    -1.23300
O67         O  0.93876875  0.78919827  0.95633558    -0.85500
O68         O  0.96282317  0.71672746  0.98702799    -0.82600
C69         C  0.97984643  0.72990626  0.97369777     0.97900
O70         O  0.98815443  0.76815401  0.98742220    -0.82600
O71         O  0.99336428  0.86035723  0.02293399    -0.85200
C72         C  0.98610227  0.89109589  0.99847253     1.02500
O73         O  0.96899263  0.88409044  0.98510541    -0.78000
O74         O  0.93014224  0.86221572  0.97840655    -0.78200
C75         C  0.93221537  0.83215861  0.94980518     1.02400
O76         O  0.91539596  0.79575210  0.02910986    -0.85500
O77         O  0.94224140  0.72754259  0.06232895    -0.82600
C78         C  0.95855413  0.70909865  0.07396355     0.98000
O79         O  0.97507628  0.72717677  0.06227349    -0.82600
O80         O  0.97741874  0.82198158  0.09458824    -0.85200
C81         C  0.97477876  0.86813049  0.09846557     1.02400
O82         O  0.96574843  0.89229234  0.07139877    -0.78000
O83         O  0.92733004  0.85844676  0.06334260    -0.78200
C84         C  0.91272224  0.83292381  0.05209293     1.02400
Cr85       Cr  0.94077152  0.76046083  0.01018528     1.93700
Cr86       Cr  0.98171616  0.79482534  0.04058658     1.93200
Cr87       Cr  0.94867715  0.87001979  0.02488923     1.39100
O88         O  0.95684296  0.80811996  0.02629932    -1.23300
O89         O  0.07872903  0.54281338  0.77730793    -0.85500
O90         O  0.05149885  0.47660365  0.81133136    -0.82600
C91         C  0.03512717  0.45886870  0.82335077     0.97900
O92         O  0.01863073  0.47674509  0.81131063    -0.82600
O93         O  0.01620432  0.57105808  0.84358454    -0.85200
C94         C  0.01937416  0.61682015  0.84823870     1.02500
O95         O  0.02871531  0.64083685  0.82145462    -0.78000
O96         O  0.06653504  0.60271868  0.81397982    -0.78200
C97         C  0.08130247  0.57855267  0.80158822     1.02400
O98         O  0.05529418  0.53754027  0.70504928    -0.85500
O99         O  0.03108354  0.46502870  0.73676596    -0.82600
C100        C  0.01398402  0.47778941  0.72389750     0.98000
O101        O  0.00598972  0.51725497  0.73627569    -0.82600
O102        O  0.00115052  0.61041379  0.77120264    -0.85200
C103        C  0.00873124  0.64142366  0.74719586     1.02400
O104        O  0.02615165  0.63536699  0.73498677    -0.78000
O105        O  0.06451350  0.60963513  0.72829593    -0.78200
C106        C  0.06215783  0.58042136  0.69914584     1.02400
Cr107      Cr  0.05315967  0.50862908  0.75899464     1.93700
Cr108      Cr  0.01224250  0.54432548  0.78930261     1.93200
Cr109      Cr  0.04588661  0.61798139  0.77496282     1.39100
O110        O  0.03717352  0.55672783  0.77510734    -1.23300
O111        O  0.16337290  0.69352569  0.77661399    -0.85500
O112        O  0.19080050  0.76102225  0.80888786    -0.82600
C113        C  0.20725273  0.77879029  0.82031689     0.97900
O114        O  0.22365653  0.75990609  0.80867603    -0.82600
O115        O  0.22571228  0.66641277  0.84341945    -0.85200
C116        C  0.22223385  0.62080323  0.84871998     1.02500
O117        O  0.21298684  0.59647019  0.82212690    -0.78000
O118        O  0.17535886  0.63409777  0.81394573    -0.78200
C119        C  0.16067078  0.65809355  0.80119428     1.02400
O120        O  0.18687641  0.69627281  0.70414195    -0.85500
O121        O  0.21138524  0.76921381  0.73364395    -0.82600
C122        C  0.22844670  0.75550115  0.72082706     0.98000
O123        O  0.23637377  0.71662806  0.73455184    -0.82600
O124        O  0.24084392  0.62460657  0.77205898    -0.85200
C125        C  0.23324247  0.59319056  0.74853806     1.02400
O126        O  0.21596268  0.59952418  0.73581629    -0.78000
O127        O  0.17761365  0.62475822  0.72846995    -0.78200
C128        C  0.18014017  0.65317652  0.69891716     1.02400
Cr129      Cr  0.18907341  0.72691802  0.75733980     1.93700
Cr130      Cr  0.22987092  0.69147983  0.78840222     1.93200
Cr131      Cr  0.19608587  0.61790937  0.77528238     1.39100
O132        O  0.20490317  0.67908382  0.77444533    -1.23300
O133        O  0.07967126  0.69002114  0.45870935    -0.85500
O134        O  0.05268101  0.75835952  0.42693700    -0.82600
C135        C  0.03635353  0.77660801  0.41523154     0.97900
O136        O  0.01982132  0.75811499  0.42668619    -0.82600
O137        O  0.01688193  0.66322017  0.39380831    -0.85200
C138        C  0.01993086  0.61724504  0.38928176     1.02500
O139        O  0.02925007  0.59322319  0.41607044    -0.78000
O140        O  0.06774393  0.62832487  0.42334965    -0.78200
C141        C  0.08234122  0.65408380  0.43453155     1.02400
O142        O  0.05647471  0.69419031  0.53195239    -0.85500
O143        O  0.03244862  0.76801226  0.50243298    -0.82600
C144        C  0.01544193  0.75486484  0.51573441     0.98000
O145        O  0.00717236  0.71654225  0.50200914    -0.82600
O146        O  0.00195034  0.62430257  0.46636949    -0.85200
C147        C  0.00946980  0.59367058  0.49068414     1.02400
O148        O  0.02683673  0.59996201  0.50279249    -0.78000
O149        O  0.06551422  0.62216788  0.50856248    -0.78200
C150        C  0.06314103  0.65113464  0.53780635     1.02400
Cr151      Cr  0.05433968  0.72442991  0.47855711     1.93700
Cr152      Cr  0.01327227  0.69015547  0.44839895     1.93200
Cr153      Cr  0.04667942  0.61520264  0.46233708     1.39100
O154        O  0.03828405  0.67696616  0.46190918    -1.23300
O155        O  0.16560943  0.54607205  0.45839745    -0.85500
O156        O  0.19247027  0.47841298  0.42507760    -0.82600
C157        C  0.20876058  0.46005137  0.41315451     0.97900
O158        O  0.22533386  0.47832749  0.42440258    -0.82600
O159        O  0.22802895  0.57335821  0.39238630    -0.85200
C160        C  0.22521072  0.61942997  0.38836900     1.02500
O161        O  0.21589398  0.64334938  0.41533718    -0.78000
O162        O  0.17734128  0.60845753  0.42355042    -0.78200
C163        C  0.16281405  0.58230788  0.43464134     1.02400
O164        O  0.18905037  0.54050763  0.53091530    -0.85500
O165        O  0.21293825  0.46750158  0.49978473    -0.82600
C166        C  0.22986196  0.48079250  0.51314040     0.98000
O167        O  0.23816081  0.51921697  0.49969540    -0.82600
O168        O  0.24349513  0.61152855  0.46458445    -0.85200
C169        C  0.23616775  0.64228369  0.48907764     1.02400
O170        O  0.21885774  0.63594544  0.50178295    -0.78000
O171        O  0.18012504  0.61321742  0.50877835    -0.78200
C172        C  0.18232580  0.58334293  0.53748999     1.02400
Cr173      Cr  0.19100210  0.51141011  0.47710627     1.93700
Cr174      Cr  0.23195338  0.54600380  0.44649733     1.93200
Cr175      Cr  0.19868592  0.62095343  0.46196850     1.39100
O176        O  0.20702204  0.55915726  0.46073027    -1.23300
O177        O  0.66669754  0.19205112  0.77816669    -0.85500
O178        O  0.69440859  0.26067265  0.80886110    -0.82600
C179        C  0.71091634  0.27946641  0.81910812     0.97900
O180        O  0.72730185  0.26054390  0.80711800    -0.82600
O181        O  0.73098453  0.16541268  0.84068839    -0.85200
C182        C  0.72784853  0.11950589  0.84544488     1.02500
O183        O  0.71748196  0.09562803  0.82017674    -0.78000
O184        O  0.67874570  0.13089577  0.81379944    -0.78200
C185        C  0.66398879  0.15578491  0.80201657     1.02400
O186        O  0.68917670  0.19530296  0.70434898    -0.85500
O187        O  0.71368288  0.26914661  0.73261560    -0.82600
C188        C  0.73044854  0.25543939  0.71851597     0.98000
O189        O  0.73870728  0.21683457  0.73164221    -0.82600
O190        O  0.74457818  0.12557451  0.76814512    -0.85200
C191        C  0.73669516  0.09447591  0.74477375     1.02400
O192        O  0.71917986  0.10071194  0.73344553    -0.78000
O193        O  0.68051904  0.12347538  0.72876819    -0.78200
C194        C  0.68246312  0.15213877  0.69925112     1.02400
Cr195      Cr  0.69199477  0.22609021  0.75753657     1.93700
Cr196      Cr  0.73348795  0.19178996  0.78582261     1.93200
Cr197      Cr  0.69966628  0.11699871  0.77441565     1.39100
O198        O  0.70819654  0.17863659  0.77394495    -1.23300
O199        O  0.58061887  0.04419324  0.77606244    -0.85500
O200        O  0.55234938  0.97705235  0.80702684    -0.82600
C201        C  0.53576186  0.95955424  0.81820361     0.97900
O202        O  0.51948510  0.97899930  0.80651414    -0.82600
O203        O  0.51742818  0.07260792  0.84104311    -0.85200
C204        C  0.52084217  0.11813551  0.84673198     1.02500
O205        O  0.53089089  0.14242999  0.82119489    -0.78000
O206        O  0.56885894  0.10403827  0.81343428    -0.78200
C207        C  0.58349900  0.07953580  0.80069479     1.02400
O208        O  0.55763666  0.04335644  0.70298929    -0.85500
O209        O  0.53247591  0.97031390  0.73118540    -0.82600
C210        C  0.51539211  0.98379570  0.71843676     0.98000
O211        O  0.50753584  0.02291224  0.73192455    -0.82600
O212        O  0.50324820  0.11494432  0.76945035    -0.85200
C213        C  0.51131612  0.14704745  0.74713678     1.02400
O214        O  0.52870909  0.14044030  0.73493307    -0.78000
O215        O  0.56702992  0.11425095  0.72825414    -0.78200
C216        C  0.56475718  0.08623275  0.69839077     1.02400
Cr217      Cr  0.55477772  0.01188554  0.75584397     1.93700
Cr218      Cr  0.51379598  0.04781775  0.78596876     1.93200
Cr219      Cr  0.54820086  0.12094870  0.77465453     1.39100
O220        O  0.53902388  0.05991008  0.77297744    -1.23300
O221        O  0.66547584  0.04462437  0.45969279    -0.85500
O222        O  0.69242362  0.97720747  0.42531375    -0.82600
C223        C  0.70872176  0.95859144  0.41358616     0.97900
O224        O  0.72527528  0.97656170  0.42521536    -0.82600
O225        O  0.72765992  0.07083611  0.39194360    -0.85200
C226        C  0.72462280  0.11675177  0.38742064     1.02500
O227        O  0.71545710  0.14109826  0.41435518    -0.78000
O228        O  0.67741086  0.10579640  0.42386304    -0.78200
C229        C  0.66277733  0.08118856  0.43625758     1.02400
O230        O  0.68929710  0.03893660  0.53144710    -0.85500
O231        O  0.71327036  0.96676697  0.49978857    -0.82600
C232        C  0.73022348  0.98026871  0.51294315     0.98000
O233        O  0.73833774  0.01898680  0.49960510    -0.82600
O234        O  0.74336223  0.11080608  0.46299604    -0.85200
C235        C  0.73587105  0.14192133  0.48694601     1.02400
O236        O  0.71898929  0.13392251  0.50105041    -0.78000
O237        O  0.68041452  0.11169106  0.50923334    -0.78200
C238        C  0.68262562  0.08184167  0.53798884     1.02400
Cr239      Cr  0.69107486  0.00995671  0.47753201     1.93700
Cr240      Cr  0.73191009  0.04463514  0.44625428     1.93200
Cr241      Cr  0.69866473  0.11912030  0.46181277     1.39100
O242        O  0.70701632  0.05760437  0.46079303    -1.23300
O243        O  0.58052435  0.19911156  0.46047010    -0.85500
O244        O  0.55296231  0.26666446  0.42746127    -0.82600
C245        C  0.53636659  0.28382942  0.41589926     0.97900
O246        O  0.52010483  0.26471305  0.42788466    -0.82600
O247        O  0.51826784  0.17136668  0.39337882    -0.85200
C248        C  0.52158868  0.12569050  0.38826916     1.02500
O249        O  0.53118521  0.10147410  0.41454357    -0.78000
O250        O  0.56914878  0.13839424  0.42369245    -0.78200
C251        C  0.58361856  0.16326961  0.43648220     1.02400
O252        O  0.55699100  0.20187088  0.53251436    -0.85500
O253        O  0.53243636  0.27425415  0.50240807    -0.82600
C254        C  0.51556023  0.26001064  0.51550995     0.98000
O255        O  0.50770734  0.22106058  0.50196940    -0.82600
O256        O  0.50306827  0.12948802  0.46452688    -0.85200
C257        C  0.51071606  0.09790902  0.48785067     1.02400
O258        O  0.52788444  0.10504267  0.50083018    -0.78000
O259        O  0.56627455  0.12995097  0.50894318    -0.78200
C260        C  0.56401827  0.15908818  0.53817686     1.02400
Cr261      Cr  0.55477412  0.23228179  0.47914448     1.93700
Cr262      Cr  0.51409614  0.19628872  0.44822100     1.93200
Cr263      Cr  0.54799397  0.12293035  0.46172239     1.39100
O264        O  0.53912479  0.18414603  0.46205619    -1.23300
O265        O  0.66385400  0.69048296  0.27530158    -0.85500
O266        O  0.69048284  0.75871797  0.30985095    -0.82600
C267        C  0.70674001  0.77640762  0.32257712     0.97900
O268        O  0.72327019  0.75651327  0.31305265    -0.82600
O269        O  0.72422114  0.66258805  0.34683763    -0.85200
C270        C  0.72138067  0.61659751  0.35098623     1.02500
O271        O  0.71257565  0.59237134  0.32370658    -0.78000
O272        O  0.67454630  0.62872648  0.31206158    -0.78200
C273        C  0.66036063  0.65452260  0.29899443     1.02400
O274        O  0.68869872  0.69341142  0.20450201    -0.85500
O275        O  0.71263723  0.76594373  0.23675201    -0.82600
C276        C  0.73014543  0.75297429  0.22613668     0.98000
O277        O  0.73782282  0.71413482  0.24027668    -0.82600
O278        O  0.74145265  0.62220113  0.27684212    -0.85200
C279        C  0.73458498  0.59167007  0.25180529     1.02400
O280        O  0.71752490  0.59800860  0.23788451    -0.78000
O281        O  0.67911302  0.62142569  0.22721050    -0.78200
C282        C  0.68181072  0.65064041  0.19822334     1.02400
Cr283      Cr  0.68985383  0.72386144  0.25817857     1.93700
Cr284      Cr  0.72986421  0.68835938  0.29290336     1.93200
Cr285      Cr  0.69657007  0.61445900  0.27560562     1.39100
O286        O  0.70523183  0.67592776  0.27650064    -1.23300
O287        O  0.57712536  0.54512118  0.27208276    -0.85500
O288        O  0.55028289  0.47809398  0.30529820    -0.82600
C289        C  0.53412110  0.46018682  0.31811113     0.97900
O290        O  0.51742986  0.47805471  0.30696376    -0.82600
O291        O  0.51505763  0.57220390  0.34082719    -0.85200
C292        C  0.51848732  0.61789747  0.34577324     1.02500
O293        O  0.52767770  0.64218246  0.31904017    -0.78000
O294        O  0.56555502  0.60528565  0.30950953    -0.78200
C295        C  0.58004505  0.58026849  0.29675498     1.02400
O296        O  0.55310962  0.54247155  0.20049477    -0.85500
O297        O  0.52913161  0.46907274  0.23102383    -0.82600
C298        C  0.51200656  0.48236055  0.21856195     0.98000
O299        O  0.50389977  0.52077269  0.23271301    -0.82600
O300        O  0.49937818  0.61311468  0.26992346    -0.85200
C301        C  0.50685149  0.64475817  0.24634006     1.02400
O302        O  0.52402481  0.63821370  0.23292480    -0.78000
O303        O  0.56256169  0.61387196  0.22461284    -0.78200
C304        C  0.56017539  0.58523313  0.19520950     1.02400
Cr305      Cr  0.55139351  0.51180374  0.25371715     1.93700
Cr306      Cr  0.51071495  0.54641658  0.28622882     1.93200
Cr307      Cr  0.54430925  0.62066240  0.27175428     1.39100
O308        O  0.53559498  0.55933593  0.27145805    -1.23300
O309        O  0.66325499  0.54258198  0.95646053    -0.85500
O310        O  0.69193220  0.47768893  0.92342805    -0.82600
C311        C  0.70863785  0.46046163  0.91249929     0.97900
O312        O  0.72481962  0.47998306  0.92489469    -0.82600
O313        O  0.72562631  0.57346270  0.89123406    -0.85200
C314        C  0.72163343  0.61861806  0.88544656     1.02500
O315        O  0.71179041  0.64277989  0.91157327    -0.78000
O316        O  0.67434082  0.60451229  0.92063383    -0.78200
C317        C  0.66001921  0.57847942  0.93252699     1.02400
O318        O  0.68672412  0.53975908  0.02910928    -0.85500
O319        O  0.71204928  0.46961281  0.99877734    -0.82600
C320        C  0.72875033  0.48400660  0.01271652     0.98000
O321        O  0.73637429  0.52403786  0.00015815    -0.82600
O322        O  0.73993046  0.61875119  0.96168249    -0.85200
C323        C  0.73099063  0.64939572  0.98420821     1.02400
O324        O  0.71480777  0.63665078  0.99890196    -0.78000
O325        O  0.67683525  0.61153099  0.00652430    -0.78200
C326        C  0.67976183  0.58240617  0.03554249     1.02400
Cr327      Cr  0.68936228  0.51055919  0.97543665     1.93700
Cr328      Cr  0.72997600  0.54934265  0.94596750     1.93200
Cr329      Cr  0.69510955  0.62007888  0.95916217     1.39100
O330        O  0.70462109  0.55958158  0.95903068    -1.23300
O331        O  0.57804042  0.69429391  0.95537056    -0.85500
O332        O  0.55038895  0.76179740  0.92360065    -0.82600
C333        C  0.53390777  0.78028211  0.91292441     0.97900
O334        O  0.51756633  0.76218190  0.92560079    -0.82600
O335        O  0.51499980  0.66719766  0.89304884    -0.85200
C336        C  0.51811646  0.62127390  0.88859234     1.02500
O337        O  0.52744110  0.59722978  0.91524591    -0.78000
O338        O  0.56556451  0.63278011  0.92079517    -0.78200
C339        C  0.58040238  0.65758254  0.93183098     1.02400
O340        O  0.55554238  0.69986260  0.02914766    -0.85500
O341        O  0.53100320  0.77237299  0.00009695    -0.82600
C342        C  0.51420857  0.75910979  0.01445725     0.98000
O343        O  0.50574327  0.72076976  0.00118598    -0.82600
O344        O  0.50033435  0.62826833  0.96579956    -0.85200
C345        C  0.50800371  0.59701342  0.98942669     1.02400
O346        O  0.52542327  0.60341805  0.00140820    -0.78000
O347        O  0.56418657  0.62736387  0.00598638    -0.78200
C348        C  0.56211616  0.65675184  0.03500870     1.02400
Cr349      Cr  0.55276521  0.72898045  0.97560757     1.93700
Cr350      Cr  0.51145583  0.69416650  0.94753156     1.93200
Cr351      Cr  0.54502350  0.61948170  0.96063118     1.39100
O352        O  0.53654652  0.68115967  0.96036443    -1.23300
O353        O  0.30714401  0.79250056  0.28029617    -0.85500
O354        O  0.28295123  0.71924582  0.25109787    -0.82600
C355        C  0.26604411  0.73283235  0.26480308     0.97900
O356        O  0.25770705  0.77103805  0.25104879    -0.82600
O357        O  0.25208150  0.86207617  0.21420541    -0.85200
C358        C  0.25947381  0.89291511  0.23836045     1.02500
O359        O  0.27672638  0.88621895  0.25095563    -0.78000
O360        O  0.31544251  0.86528999  0.25735270    -0.78200
C361        C  0.31343729  0.83582913  0.28636437     1.02400
O362        O  0.33017592  0.79746103  0.20705060    -0.85500
O363        O  0.30288706  0.72812176  0.17502603    -0.82600
C364        C  0.28642546  0.70959952  0.16416129     0.98000
O365        O  0.27004498  0.72804754  0.17637386    -0.82600
O366        O  0.26730202  0.82207154  0.14255960    -0.85200
C367        C  0.27028318  0.86794314  0.13761279     1.02400
O368        O  0.27948434  0.89273078  0.16411426    -0.78000
O369        O  0.31804893  0.85929687  0.17221089    -0.78200
C370        C  0.33280595  0.83448924  0.18388947     1.02400
Cr371      Cr  0.30484080  0.76244479  0.22679681     1.93700
Cr372      Cr  0.26361787  0.79624738  0.19720338     1.93200
Cr373      Cr  0.29677827  0.87165581  0.21083060     1.39100
O374        O  0.28864774  0.80976130  0.21038522    -1.23300
O375        O  0.43828531  0.95171830  0.28306908    -0.85500
O376        O  0.46323933  0.02426243  0.25355630    -0.82600
C377        C  0.48014391  0.01061136  0.26704425     0.97900
O378        O  0.48816133  0.97155262  0.25396703    -0.82600
O379        O  0.49315820  0.87916467  0.21787577    -0.85200
C380        C  0.48528098  0.84800425  0.24132559     1.02500
O381        O  0.46792371  0.85492679  0.25356186    -0.78000
O382        O  0.42934798  0.87992690  0.25891913    -0.78200
C383        C  0.43134638  0.90877642  0.28833828     1.02400
O384        O  0.41562504  0.94798318  0.20951122    -0.85500
O385        O  0.44355459  0.01485962  0.17754414    -0.82600
C386        C  0.46010436  0.03248939  0.16625472     0.98000
O387        O  0.47643742  0.01418825  0.17879220    -0.82600
O388        O  0.47894469  0.91946859  0.14553533    -0.85200
C389        C  0.47561148  0.87372415  0.14062010     1.02400
O390        O  0.46586370  0.84981925  0.16689871    -0.78000
O391        O  0.42771836  0.88699887  0.17372462    -0.78200
C392        C  0.41297018  0.91187298  0.18549914     1.02400
Cr393      Cr  0.44117642  0.98156859  0.22946532     1.93700
Cr394      Cr  0.48234504  0.94573984  0.20027182     1.93200
Cr395      Cr  0.44837719  0.87215585  0.21303172     1.39100
O396        O  0.45716499  0.93346475  0.21331441    -1.23300
O397        O  0.30504495  0.94774467  0.45414536    -0.85500
O398        O  0.28102734  0.02072979  0.48516815    -0.82600
C399        C  0.26383394  0.00805068  0.47265137     0.97900
O400        O  0.25571742  0.96929113  0.48617132    -0.82600
O401        O  0.25112882  0.87615183  0.52256914    -0.85200
C402        C  0.25880351  0.84490828  0.49884839     1.02500
O403        O  0.27580415  0.85266957  0.48520172    -0.78000
O404        O  0.31430502  0.87571304  0.47728968    -0.78200
C405        C  0.31197974  0.90496759  0.44817544     1.02400
O406        O  0.32886381  0.94326335  0.52611666    -0.85500
O407        O  0.30195388  0.01063426  0.55959442    -0.82600
C408        C  0.28571533  0.02882258  0.57188118     0.98000
O409        O  0.26908741  0.01071859  0.56073419    -0.82600
O410        O  0.26667154  0.91645806  0.59398523    -0.85200
C411        C  0.26974476  0.87057509  0.59860842     1.02400
O412        O  0.27904122  0.84644329  0.57176101    -0.78000
O413        O  0.31700319  0.88280149  0.56275403    -0.78200
C414        C  0.33161078  0.90755710  0.55040336     1.02400
Cr415      Cr  0.30322984  0.97747146  0.50774106     1.93700
Cr416      Cr  0.26241753  0.94275061  0.53950039     1.93200
Cr417      Cr  0.29592474  0.86852375  0.52454346     1.39100
O418        O  0.28733434  0.92992447  0.52488058    -1.23300
O419        O  0.43675004  0.79246026  0.45366789    -0.85500
O420        O  0.46163531  0.71997064  0.48244733    -0.82600
C421        C  0.47843014  0.73350456  0.46860508     0.97900
O422        O  0.48632801  0.77301139  0.48113153    -0.82600
O423        O  0.49050382  0.86636853  0.51694117    -0.85200
C424        C  0.48209689  0.89835840  0.49486451     1.02500
O425        O  0.46454445  0.89170820  0.48398804    -0.78000
O426        O  0.42669781  0.86313802  0.47832332    -0.78200
C427        C  0.42949509  0.83510121  0.44855342     1.02400
O428        O  0.41384043  0.79374451  0.52670882    -0.85500
O429        O  0.44215962  0.72757912  0.55799185    -0.82600
C430        C  0.45885941  0.71037359  0.56882286     0.98000
O431        O  0.47506430  0.73040070  0.55705714    -0.82600
O432        O  0.47732986  0.82510737  0.59011716    -0.85200
C433        C  0.47343032  0.87044414  0.59588181     1.02400
O434        O  0.46310277  0.89408244  0.57041520    -0.78000
O435        O  0.42559725  0.85324806  0.56415460    -0.78200
C436        C  0.41101650  0.82858118  0.55170239     1.02400
Cr437      Cr  0.43956107  0.76175789  0.50666003     1.93700
Cr438      Cr  0.48048673  0.79912336  0.53512974     1.93200
Cr439      Cr  0.44564978  0.87120038  0.52448752     1.39100
O440        O  0.45518517  0.81041582  0.52294454    -1.23300
O441        O  0.80551400  0.28774894  0.27782793    -0.85500
O442        O  0.78080822  0.21568782  0.24811679    -0.82600
C443        C  0.76397211  0.22977162  0.26165482     0.97900
O444        O  0.75600578  0.26861281  0.24804973    -0.82600
O445        O  0.75185427  0.36128168  0.21240951    -0.85200
C446        C  0.75982804  0.39209108  0.23594246     1.02500
O447        O  0.77725337  0.38535037  0.24765200    -0.78000
O448        O  0.81537946  0.35888747  0.25400293    -0.78200
C449        C  0.81265584  0.33037745  0.28343621     1.02400
O450        O  0.82889831  0.29028117  0.20519078    -0.85500
O451        O  0.80096286  0.22361142  0.17269811    -0.82600
C452        C  0.78434551  0.20625186  0.16159774     0.98000
O453        O  0.76809087  0.22637296  0.17284851    -0.82600
O454        O  0.76599022  0.32165388  0.13965841    -0.85200
C455        C  0.76967164  0.36734945  0.13494645     1.02400
O456        O  0.77961510  0.39046950  0.16127924    -0.78000
O457        O  0.81736787  0.35082874  0.16843422    -0.78200
C458        C  0.83191397  0.32617755  0.18120945     1.02400
Cr459      Cr  0.80308841  0.25757867  0.22438712     1.93700
Cr460      Cr  0.76232632  0.29477079  0.19438467     1.93200
Cr461      Cr  0.79673592  0.36709412  0.20748601     1.39100
O462        O  0.78749248  0.30614951  0.20774027    -1.23300
O463        O  0.93810085  0.44724025  0.28224645    -0.85500
O464        O  0.96226533  0.51931331  0.25099544    -0.82600
C465        C  0.97930157  0.50598259  0.26406403     0.97900
O466        O  0.98743690  0.46720244  0.25057179    -0.82600
O467        O  0.99216026  0.37435878  0.21499334    -0.85200
C468        C  0.98480804  0.34337787  0.23922829     1.02500
O469        O  0.96764100  0.35022323  0.25260761    -0.78000
O470        O  0.92903597  0.37472089  0.25991767    -0.78200
C471        C  0.93154299  0.40427148  0.28870913     1.02400
O472        O  0.91437246  0.44132276  0.21003804    -0.85500
O473        O  0.94155799  0.50857125  0.17604948    -0.82600
C474        C  0.95793102  0.52681634  0.16450130     0.98000
O475        O  0.97440546  0.50815790  0.17588155    -0.82600
O476        O  0.97642469  0.41301350  0.14318461    -0.85200
C477        C  0.97319628  0.36706022  0.13904675     1.02400
O478        O  0.96426985  0.34332928  0.16647292    -0.78000
O479        O  0.92643399  0.37994957  0.17464308    -0.78200
C480        C  0.91172074  0.40468797  0.18654466     1.02400
Cr481      Cr  0.94003079  0.47593150  0.22833837     1.93700
Cr482      Cr  0.98084202  0.44029507  0.19739889     1.93200
Cr483      Cr  0.94745110  0.36628931  0.21314655     1.39100
O484        O  0.95597023  0.42779804  0.21209554    -1.23300
O485        O  0.80684288  0.44532183  0.45087300    -0.85500
O486        O  0.78238116  0.51760837  0.48161478    -0.82600
C487        C  0.76512737  0.50428286  0.46984432     0.97900
O488        O  0.75726123  0.46556257  0.48368522    -0.82600
O489        O  0.75295678  0.37376591  0.51867943    -0.85200
C490        C  0.76019466  0.34340372  0.49379508     1.02500
O491        O  0.77748741  0.34982822  0.48091647    -0.78000
O492        O  0.81617710  0.37348444  0.47398165    -0.78200
C493        C  0.81356105  0.40233802  0.44479694     1.02400
O494        O  0.83042972  0.44129725  0.52369527    -0.85500
O495        O  0.80312980  0.50960544  0.55634251    -0.82600
C496        C  0.78666178  0.52730159  0.56811599     0.98000
O497        O  0.77030546  0.50740656  0.55766167    -0.82600
O498        O  0.76871615  0.41253336  0.59069878    -0.85200
C499        C  0.77153832  0.36640340  0.59439274     1.02400
O500        O  0.78055647  0.34279967  0.56698122    -0.78000
O501        O  0.81846485  0.37981708  0.55924408    -0.78200
C502        C  0.83309217  0.40498524  0.54751793     1.02400
Cr503      Cr  0.80476955  0.47524405  0.50461305     1.93700
Cr504      Cr  0.76413307  0.43943563  0.53651999     1.93200
Cr505      Cr  0.79757138  0.36573966  0.52059550     1.39100
O506        O  0.78899385  0.42722273  0.52152415    -1.23300
O507        O  0.94014434  0.29107337  0.45539591    -0.85500
O508        O  0.96409049  0.21777217  0.48533094    -0.82600
C509        C  0.98116413  0.23105331  0.47251987     0.97900
O510        O  0.98936107  0.26934120  0.48664884    -0.82600
O511        O  0.99397108  0.36089561  0.52514058    -0.85200
C512        C  0.98665484  0.39214614  0.50112946     1.02500
O513        O  0.96952358  0.38563019  0.48776749    -0.78000
O514        O  0.93101064  0.36296097  0.47916431    -0.78200
C515        C  0.93337470  0.33410502  0.44986133     1.02400
O516        O  0.91621579  0.29384689  0.52711443    -0.85500
O517        O  0.94313020  0.22565299  0.56012105    -0.82600
C518        C  0.95946243  0.20739633  0.57191809     0.98000
O519        O  0.97598884  0.22552374  0.56029462    -0.82600
O520        O  0.97792561  0.31858036  0.59542997    -0.85200
C521        C  0.97436784  0.36411186  0.60089482     1.02400
O522        O  0.96560791  0.38911324  0.57404625    -0.78000
O523        O  0.92764250  0.35423009  0.56418637    -0.78200
C524        C  0.91316481  0.32944159  0.55137299     1.02400
Cr525      Cr  0.94185549  0.26013233  0.50853676     1.93700
Cr526      Cr  0.98254904  0.29408416  0.54056369     1.93200
Cr527      Cr  0.94909965  0.36881235  0.52652680     1.39100
O528        O  0.95766597  0.30735680  0.52615878    -1.23300
O529        O  0.07973238  0.04351271  0.27688264    -0.85500
O530        O  0.05249554  0.97575443  0.31067650    -0.82600
C531        C  0.03605891  0.95749243  0.32202199     0.97900
O532        O  0.01965737  0.97649811  0.31062084    -0.82600
O533        O  0.01768713  0.07152182  0.34375987    -0.85200
C534        C  0.02095166  0.11745048  0.34800909     1.02500
O535        O  0.02992461  0.14140488  0.32074749    -0.78000
O536        O  0.06766999  0.10508297  0.31212930    -0.78200
C537        C  0.08234230  0.08033960  0.30012273     1.02400
O538        O  0.05604885  0.03805476  0.20476255    -0.85500
O539        O  0.03194831  0.96638023  0.23568185    -0.82600
C540        C  0.01512986  0.98050181  0.22217986     0.98000
O541        O  0.00688386  0.01878005  0.23616347    -0.82600
O542        O  0.00196986  0.11075350  0.27241029    -0.85200
C543        C  0.00926748  0.14170377  0.24812469     1.02400
O544        O  0.02636313  0.13466986  0.23447831    -0.78000
O545        O  0.06499878  0.11077055  0.22667343    -0.78200
C546        C  0.06257119  0.08096973  0.19799969     1.02400
Cr547      Cr  0.05411966  0.00911358  0.25856888     1.93700
Cr548      Cr  0.01331686  0.04470228  0.28951290     1.93200
Cr549      Cr  0.04664766  0.11877346  0.27377842     1.39100
O550        O  0.03820206  0.05722497  0.27494541    -1.23300
O551        O  0.16483994  0.19444427  0.27615472    -0.85500
O552        O  0.19231170  0.26252594  0.30790627    -0.82600
C553        C  0.20883125  0.28036276  0.31908420     0.97900
O554        O  0.22520005  0.26085956  0.30784905    -0.82600
O555        O  0.22714923  0.16716945  0.34314413    -0.85200
C556        C  0.22352645  0.12165739  0.34883259     1.02500
O557        O  0.21413044  0.09706751  0.32257621    -0.78000
O558        O  0.17635315  0.13474290  0.31381259    -0.78200
C559        C  0.16183544  0.15936182  0.30091734     1.02400
O560        O  0.18847354  0.19560599  0.20383367    -0.85500
O561        O  0.21282577  0.26862371  0.23271611    -0.82600
C562        C  0.22969166  0.25425232  0.21952820     0.98000
O563        O  0.23774846  0.21596128  0.23386935    -0.82600
O564        O  0.24211783  0.12492294  0.27195944    -0.85200
C565        C  0.23442392  0.09356428  0.24855425     1.02400
O566        O  0.21713884  0.10024885  0.23606635    -0.78000
O567        O  0.17888613  0.12468923  0.22852768    -0.78200
C568        C  0.18174594  0.15247107  0.19875192     1.02400
Cr569      Cr  0.19053951  0.22719068  0.25673290     1.93700
Cr570      Cr  0.23125420  0.19186077  0.28802466     1.93200
Cr571      Cr  0.19727769  0.11838166  0.27549103     1.39100
O572        O  0.20620852  0.17951362  0.27445985    -1.23300
O573        O  0.08003181  0.19586246  0.96062106    -0.85500
O574        O  0.05205815  0.26233458  0.92850036    -0.82600
C575        C  0.03549167  0.27956401  0.91700229     0.97900
O576        O  0.01918105  0.25972190  0.92805081    -0.82600
O577        O  0.01746941  0.16630744  0.89306209    -0.85200
C578        C  0.02115351  0.12089463  0.88723724     1.02500
O579        O  0.03115457  0.09675192  0.91292548    -0.78000
O580        O  0.06884782  0.13661062  0.92211412    -0.78200
C581        C  0.08326062  0.16116796  0.93561046     1.02400
O582        O  0.05616575  0.19613738  0.03258220    -0.85500
O583        O  0.03132335  0.26887814  0.00312981    -0.82600
C584        C  0.01433316  0.25465373  0.01568761     0.98000
O585        O  0.00674969  0.21534007  0.00216678    -0.82600
O586        O  0.00292187  0.12374350  0.96446894    -0.85200
C587        C  0.01082092  0.09200189  0.98730701     1.02400
O588        O  0.02825835  0.09810132  0.99923899    -0.78000
O589        O  0.06617070  0.12562928  0.00725726    -0.78200
C590        C  0.06325223  0.15322552  0.03719500     1.02400
Cr591      Cr  0.05393604  0.22759700  0.97965570     1.93700
Cr592      Cr  0.01341316  0.19089662  0.94818344     1.93200
Cr593      Cr  0.04794619  0.11855319  0.96012772     1.39100
O594        O  0.03852825  0.17930556  0.96180882    -1.23300
O595        O  0.16609218  0.04571511  0.95891670    -0.85500
O596        O  0.19291612  0.97762792  0.92499855    -0.82600
C597        C  0.20917236  0.95900343  0.91306435     0.97900
O598        O  0.22575687  0.97706755  0.92421581    -0.82600
O599        O  0.22809450  0.07126780  0.89056631    -0.85200
C600        C  0.22509202  0.11724655  0.88629535     1.02500
O601        O  0.21612809  0.14145611  0.91349562    -0.78000
O602        O  0.17781101  0.10723825  0.92318590    -0.78200
C603        C  0.16321368  0.08230424  0.93551765     1.02400
O604        O  0.19002541  0.04042012  0.03073696    -0.85500
O605        O  0.21384491  0.96755699  0.99956836    -0.82600
C606        C  0.23095483  0.98065907  0.01228344     0.98000
O607        O  0.23920324  0.01884968  0.99818415    -0.82600
O608        O  0.24425683  0.11087035  0.96152024    -0.85200
C609        C  0.23712284  0.14176022  0.98609733     1.02400
O610        O  0.21999584  0.13525547  0.99970106    -0.78000
O611        O  0.18125081  0.11296322  0.00801696    -0.78200
C612        C  0.18350644  0.08355061  0.03694649     1.02400
Cr613      Cr  0.19169904  0.01094537  0.97698140     1.93700
Cr614      Cr  0.23253092  0.04494483  0.94492186     1.93200
Cr615      Cr  0.19942735  0.12002632  0.96077958     1.39100
O616        O  0.20769365  0.05832122  0.95986531    -1.23300
O617        O  0.30626238  0.29278175  0.78009955    -0.85500
O618        O  0.28217881  0.21930358  0.75065753    -0.82600
C619        C  0.26516390  0.23266706  0.76375260     0.97900
O620        O  0.25693945  0.27114546  0.75012467    -0.82600
O621        O  0.25169564  0.36232576  0.71299209    -0.85200
C622        C  0.25888378  0.39377246  0.73692629     1.02500
O623        O  0.27639228  0.38911565  0.74907381    -0.78000
O624        O  0.31505179  0.36486152  0.75629408    -0.78200
C625        C  0.31277270  0.33602619  0.78563165     1.02400
O626        O  0.32965352  0.29601597  0.70745613    -0.85500
O627        O  0.30240826  0.22769940  0.67537373    -0.82600
C628        C  0.28595308  0.20920513  0.66457523     0.98000
O629        O  0.26956472  0.22817140  0.67603538    -0.82600
O630        O  0.26707805  0.32188541  0.64143863    -0.85200
C631        C  0.27018547  0.36771342  0.63649526     1.02400
O632        O  0.27945944  0.39215339  0.66300244    -0.78000
O633        O  0.31763328  0.35642720  0.67109499    -0.78200
C634        C  0.33233067  0.33172092  0.68314960     1.02400
Cr635      Cr  0.30414833  0.26216234  0.72688744     1.93700
Cr636      Cr  0.26314286  0.29638297  0.69632265     1.93200
Cr637      Cr  0.29653198  0.37128960  0.70962370     1.39100
O638        O  0.28807815  0.30966890  0.71007753    -1.23300
O639        O  0.43702505  0.44850446  0.78031963    -0.85500
O640        O  0.46169704  0.52141673  0.75116360    -0.82600
C641        C  0.47853249  0.50778916  0.76491947     0.97900
O642        O  0.48700929  0.46969613  0.75126480    -0.82600
O643        O  0.49272400  0.37888385  0.71446397    -0.85200
C644        C  0.48540064  0.34754734  0.73835856     1.02500
O645        O  0.46799562  0.35333177  0.75086934    -0.78000
O646        O  0.42903780  0.37569633  0.75687775    -0.78200
C647        C  0.43051160  0.40521033  0.78598756     1.02400
O648        O  0.41476957  0.44406808  0.70645055    -0.85500
O649        O  0.44230543  0.51260541  0.67478972    -0.82600
C650        C  0.45880292  0.53090939  0.66377604     0.98000
O651        O  0.47511655  0.51307740  0.67666139    -0.82600
O652        O  0.47758252  0.41906280  0.64278669    -0.85200
C653        C  0.47465578  0.37317222  0.63795354     1.02400
O654        O  0.46551164  0.34844935  0.66454443    -0.78000
O655        O  0.42717769  0.38247808  0.67169718    -0.78200
C656        C  0.41236329  0.40742664  0.68290464     1.02400
Cr657      Cr  0.43994598  0.47856867  0.72670608     1.93700
Cr658      Cr  0.48127608  0.44469622  0.69746803     1.93200
Cr659      Cr  0.44805243  0.36931736  0.71078989     1.39100
O660        O  0.45624657  0.43115414  0.71076007    -1.23300
O661        O  0.30496920  0.44950602  0.95292446    -0.85500
O662        O  0.28038733  0.52132161  0.98440794    -0.82600
C663        C  0.26327908  0.50810907  0.97172430     0.97900
O664        O  0.25542395  0.46874270  0.98456326    -0.82600
O665        O  0.25130743  0.37495976  0.01885089    -0.85200
C666        C  0.25905047  0.34449485  0.99449431     1.02500
O667        O  0.27623879  0.35206343  0.98162964    -0.78000
O668        O  0.31467877  0.37770554  0.97569539    -0.78200
C669        C  0.31205501  0.40692592  0.94671579     1.02400
O670        O  0.32851117  0.44413968  0.02553434    -0.85500
O671        O  0.30104216  0.51062310  0.05912392    -0.82600
C672        C  0.28464863  0.52843589  0.07108320     0.98000
O673        O  0.26819413  0.50943592  0.05981746    -0.82600
O674        O  0.26649723  0.41386250  0.09127418    -0.85200
C675        C  0.26954767  0.36787335  0.09514177     1.02400
O676        O  0.27883126  0.34437968  0.06799412    -0.78000
O677        O  0.31641255  0.38311428  0.06122541    -0.78200
C678        C  0.33111341  0.40787822  0.04942287     1.02400
Cr679      Cr  0.30277652  0.47822774  0.00688180     1.93700
Cr680      Cr  0.26208968  0.44140868  0.03738197     1.93200
Cr681      Cr  0.29592676  0.36848384  0.02192369     1.39100
O682        O  0.28703343  0.42971004  0.02287011    -1.23300
O683        O  0.43624491  0.29044239  0.95174104    -0.85500
O684        O  0.46154322  0.21838978  0.98044548    -0.82600
C685        C  0.47847262  0.23271745  0.96753802     0.97900
O686        O  0.48608666  0.27201630  0.98100366    -0.82600
O687        O  0.48983618  0.36437394  0.01788201    -0.85200
C688        C  0.48168135  0.39613660  0.99530957     1.02500
O689        O  0.46434808  0.38898195  0.98317528    -0.78000
O690        O  0.42625334  0.36114776  0.97648096    -0.78200
C691        C  0.42889685  0.33301849  0.94672446     1.02400
O692        O  0.41314003  0.29119798  0.02475206    -0.85500
O693        O  0.44144097  0.22466546  0.05593872    -0.82600
C694        C  0.45810776  0.20794180  0.06736346     0.98000
O695        O  0.47431946  0.22799353  0.05586454    -0.82600
O696        O  0.47572124  0.32187150  0.08978089    -0.85200
C697        C  0.47202575  0.36730326  0.09528820     1.02400
O698        O  0.46206876  0.39124471  0.06945510    -0.78000
O699        O  0.42471983  0.35094091  0.06219529    -0.78200
C700        C  0.41019472  0.32615673  0.04969017     1.02400
Cr701      Cr  0.43904136  0.25939364  0.00471391     1.93700
Cr702      Cr  0.47967544  0.29690242  0.03486287     1.93200
Cr703      Cr  0.44499478  0.36877956  0.02301889     1.39100
O704        O  0.45448926  0.30803052  0.02164929    -1.23300
C705        C  0.35385794  0.33556263  0.05455514    -0.21500
C706        C  0.35120886  0.38737245  0.05714383    -0.09500
C707        C  0.36795005  0.41762971  0.06268313     0.29300
C708        C  0.38705013  0.39643205  0.06386299    -0.21500
C709        C  0.38981944  0.34495142  0.05811252    -0.09500
C710        C  0.37296263  0.31452800  0.05442920     0.29300
F711        F  0.37495353  0.26485018  0.04915548    -0.20100
H712        H  0.34112653  0.31142269  0.05005904     0.17700
H713        H  0.39979926  0.42091287  0.06655916     0.17700
F714        F  0.36590461  0.46756131  0.06587188    -0.20000
C715        C  0.42443928  0.33639050  0.83436547    -0.21500
C716        C  0.42569148  0.38762588  0.82683528    -0.09500
C717        C  0.42461597  0.42064320  0.85928573     0.29300
C718        C  0.42402263  0.40248586  0.89833977    -0.21500
C719        C  0.42467265  0.35119610  0.90587410    -0.09500
C720        C  0.42400866  0.31825932  0.87336885     0.29300
F721        F  0.42388291  0.26842419  0.87915706    -0.20100
H722        H  0.42499591  0.30999068  0.81007693     0.17700
H723        H  0.42434883  0.42875270  0.92273337     0.17700
F724        F  0.42505750  0.47045030  0.85349221    -0.20000
C725        C  0.31651416  0.40533921  0.83422841    -0.21500
C726        C  0.31658133  0.35407958  0.82652902    -0.09500
C727        C  0.31782269  0.32092954  0.85878127     0.29300
C728        C  0.31775744  0.33878479  0.89782210    -0.21500
C729        C  0.31616628  0.38987838  0.90558669    -0.09500
C730        C  0.31616646  0.42319025  0.87330355     0.29300
F731        F  0.31497034  0.47290070  0.87932249    -0.20100
H732        H  0.31554354  0.43172519  0.80999510     0.17700
H733        H  0.31780421  0.31224605  0.92202467     0.17700
F734        F  0.31826020  0.27114808  0.85276111    -0.20000
C735        C  0.36909713  0.31791737  0.67395146    -0.21500
C736        C  0.35271037  0.35024304  0.67429261    -0.09500
C737        C  0.35622178  0.40186840  0.67194953     0.29300
C738        C  0.37572229  0.42055590  0.67252590    -0.21500
C739        C  0.39209829  0.38831995  0.67405689    -0.09500
C740        C  0.38861689  0.33658574  0.67311951     0.29300
F741        F  0.40403385  0.30387606  0.67488515    -0.20100
H742        H  0.36679875  0.27822340  0.67588024     0.17700
H743        H  0.37800461  0.46031407  0.67338021     0.17700
F744        F  0.34081694  0.43465821  0.67262193    -0.20000
C745        C  0.25432074  0.21409747  0.95756117    -0.21500
C746        C  0.24567653  0.19116353  0.99084747    -0.09500
C747        C  0.24017376  0.22002613  0.02396733     0.29300
C748        C  0.24277085  0.27118695  0.02325943    -0.21500
C749        C  0.25121882  0.29427813  0.98986207    -0.09500
C750        C  0.25707654  0.26528489  0.95697605     0.29300
F751        F  0.26564770  0.28647222  0.92448318    -0.20100
H752        H  0.25800801  0.19278517  0.93118321     0.17700
H753        H  0.23902010  0.29244861  0.04962425     0.17700
F754        F  0.23186724  0.19872600  0.05668028    -0.20000
C755        C  0.22999674  0.19569865  0.84767460    -0.21500
C756        C  0.23392238  0.14469691  0.85193798    -0.09500
C757        C  0.24799779  0.12256426  0.82605691     0.29300
C758        C  0.25819334  0.15129587  0.79767293    -0.21500
C759        C  0.25443116  0.20240987  0.79402262    -0.09500
C760        C  0.24000383  0.22417655  0.81912515     0.29300
F761        F  0.23603548  0.27350631  0.81716753    -0.20100
H762        H  0.21945168  0.21411545  0.86722641     0.17700
H763        H  0.26904480  0.13346567  0.77843292     0.17700
F764        F  0.25242094  0.07354631  0.82882598    -0.20000
C765        C  0.10683505  0.09070632  0.92622527    -0.21500
C766        C  0.10377276  0.14243155  0.92824502    -0.09500
C767        C  0.12047454  0.17379682  0.92855377     0.29300
C768        C  0.13977983  0.15358444  0.92777640    -0.21500
C769        C  0.14281168  0.10176153  0.92825173    -0.09500
C770        C  0.12611203  0.07047910  0.92698902     0.29300
F771        F  0.12838553  0.02046260  0.92770776    -0.20100
H772        H  0.09420872  0.06559050  0.92659923     0.17700
H773        H  0.15241118  0.17860822  0.92933203     0.17700
F774        F  0.11816334  0.22374609  0.93078617    -0.20000
C775        C  0.23540518  0.33340198  0.18187095    -0.21500
C776        C  0.24037193  0.28341630  0.18836211    -0.09500
C777        C  0.25568981  0.26208472  0.16503133     0.29300
C778        C  0.26550009  0.29010985  0.13573793    -0.21500
C779        C  0.26050087  0.34016653  0.12917094    -0.09500
C780        C  0.24534137  0.36156052  0.15288171     0.29300
F781        F  0.23954853  0.40929501  0.14727791    -0.20100
H782        H  0.22375478  0.35091117  0.19936447     0.17700
H783        H  0.27685271  0.27225473  0.11770090     0.17700
F784        F  0.26083220  0.21369410  0.16960557    -0.20000
C785        C  0.17992977  0.06637816  0.10979790    -0.21500
C786        C  0.17935223  0.10042903  0.07813058    -0.09500
C787        C  0.17700042  0.15124618  0.08681353     0.29300
C788        C  0.17660247  0.16759464  0.12626256    -0.21500
C789        C  0.17830428  0.13383470  0.15788578    -0.09500
C790        C  0.17932901  0.08273849  0.14929732     0.29300
F791        F  0.18123785  0.04874451  0.17885647    -0.20100
H792        H  0.18170796  0.02707877  0.10405801     0.17700
H793        H  0.17576479  0.20707672  0.13204336     0.17700
F794        F  0.17635751  0.18566135  0.05735444    -0.20000
C795        C  0.07118383  0.14720116  0.14864259    -0.21500
C796        C  0.06635570  0.09734145  0.15648204    -0.09500
C797        C  0.06295774  0.06518178  0.12407045     0.29300
C798        C  0.06341180  0.08326790  0.08513677    -0.21500
C799        C  0.06686698  0.13373279  0.07760775    -0.09500
C800        C  0.07128176  0.16540868  0.10963331     0.29300
F801        F  0.07513649  0.21420689  0.10335501    -0.20100
H802        H  0.07394512  0.17282056  0.17284894     0.17700
H803        H  0.05979585  0.05823930  0.06096097     0.17700
F804        F  0.05809517  0.01683147  0.12983674    -0.20000
C805        C  0.12489280  0.17174089  0.30067591    -0.21500
C806        C  0.14131835  0.14134396  0.30910837    -0.09500
C807        C  0.13790319  0.09089867  0.31878964     0.29300
C808        C  0.11861729  0.07089702  0.31695057    -0.21500
C809        C  0.10240098  0.10108726  0.30701150    -0.09500
C810        C  0.10560985  0.15207070  0.30003169     0.29300
F811        F  0.09024593  0.18224570  0.28946030    -0.20100
H812        H  0.12705888  0.21033626  0.29283171     0.17700
H813        H  0.11640896  0.03168897  0.32242039     0.17700
F814        F  0.15330604  0.05986495  0.32724161    -0.20000
C815        C  0.00873318  0.22029697  0.42213380    -0.21500
C816        C  0.99188077  0.20088087  0.44187331    -0.09500
C817        C  0.98557929  0.15254016  0.43202454     0.29300
C818        C  0.99575550  0.12486312  0.40301938    -0.21500
C819        C  0.01225281  0.14475157  0.38254487    -0.09500
C820        C  0.01871290  0.19289763  0.39263623     0.29300
F821        F  0.03457096  0.21381798  0.37379522    -0.20100
H822        H  0.01402113  0.25727647  0.42899352     0.17700
H823        H  0.99022398  0.08827559  0.39559605     0.17700
F824        F  0.96950035  0.13184520  0.45021523    -0.20000
C825        C  0.87635552  0.31551063  0.55405417    -0.21500
C826        C  0.89261191  0.34745971  0.55918857    -0.09500
C827        C  0.88890928  0.39863728  0.56517840     0.29300
C828        C  0.86943370  0.41754333  0.56278626    -0.21500
C829        C  0.85331880  0.38568234  0.55594809    -0.09500
C830        C  0.85689349  0.33417925  0.55293962     0.29300
F831        F  0.84170886  0.30211150  0.54555205    -0.20100
H832        H  0.87877699  0.27624765  0.54912992     0.17700
H833        H  0.86700147  0.45715925  0.56517236     0.17700
F834        F  0.90419346  0.43110178  0.57022048    -0.20000
C835        C  0.92754919  0.33597039  0.33785843    -0.21500
C836        C  0.92803800  0.38712765  0.32995824    -0.09500
C837        C  0.92770932  0.42059960  0.36214158     0.29300
C838        C  0.92812732  0.40292324  0.40125901    -0.21500
C839        C  0.92913460  0.35172711  0.40902681    -0.09500
C840        C  0.92823910  0.31833041  0.37688690     0.29300
F841        F  0.92886582  0.26858105  0.38295369    -0.20100
H842        H  0.92781318  0.30932872  0.31371643     0.17700
H843        H  0.92877197  0.42949921  0.42541364     0.17700
F844        F  0.92781672  0.47036051  0.35592589    -0.20000
C845        C  0.00814954  0.22176456  0.21281746    -0.21500
C846        C  0.00079106  0.19135378  0.24347086    -0.09500
C847        C  0.98959544  0.21261096  0.27451951     0.29300
C848        C  0.98601362  0.26342384  0.27480529    -0.21500
C849        C  0.99336367  0.29382762  0.24412113    -0.09500
C850        C  0.00460991  0.27257210  0.21315244     0.29300
F851        F  0.01142688  0.30028501  0.18224857    -0.20100
H852        H  0.01715826  0.20627224  0.18900867     0.17700
H853        H  0.97698042  0.27892319  0.29857548     0.17700
F854        F  0.98284755  0.18489284  0.30548848    -0.20000
C855        C  0.98868280  0.26142518  0.06997977    -0.21500
C856        C  0.00296194  0.28451920  0.04546681    -0.09500
C857        C  0.00591217  0.33599111  0.04952793     0.29300
C858        C  0.99541209  0.36304612  0.07854609    -0.21500
C859        C  0.98180245  0.33952797  0.10438571    -0.09500
C860        C  0.97829588  0.28829456  0.09917047     0.29300
F861        F  0.96518601  0.26361026  0.12283785    -0.20100
H862        H  0.98589759  0.22199352  0.06726213     0.17700
H863        H  0.99842921  0.40232730  0.08153311     0.17700
F864        F  0.01884833  0.36035864  0.02530681    -0.20000
C865        C  0.81784660  0.39936895  0.33207636    -0.21500
C866        C  0.81671775  0.34814234  0.32446144    -0.09500
C867        C  0.81711795  0.31508197  0.35690057     0.29300
C868        C  0.81749014  0.33314344  0.39593913    -0.21500
C869        C  0.81716655  0.38442767  0.40359510    -0.09500
C870        C  0.81791911  0.41745183  0.37114945     0.29300
F871        F  0.81794632  0.46726512  0.37703450    -0.20100
H872        H  0.81754366  0.42573485  0.30776344     0.17700
H873        H  0.81688621  0.30679149  0.42024248     0.17700
F874        F  0.81633501  0.26529223  0.35107643    -0.20000
C875        C  0.86889459  0.31388036  0.17631880    -0.21500
C876        C  0.85235678  0.34558543  0.17457820    -0.09500
C877        C  0.85562362  0.39739712  0.17296767     0.29300
C878        C  0.87499069  0.41679343  0.17540446    -0.21500
C879        C  0.89147794  0.38508048  0.17826888    -0.09500
C880        C  0.88827377  0.33322570  0.17762833     0.29300
F881        F  0.90377577  0.30104876  0.18146696    -0.20100
H882        H  0.86678011  0.27411629  0.17817913     0.17700
H883        H  0.87706266  0.45662242  0.17619895     0.17700
F884        F  0.84002821  0.42963193  0.17231813    -0.20000
C885        C  0.44203561  0.63475325  0.59534197    -0.21500
C886        C  0.45928089  0.66440290  0.59305193    -0.09500
C887        C  0.47670152  0.64843996  0.61269880     0.29300
C888        C  0.47655990  0.60446759  0.63490222    -0.21500
C889        C  0.45913816  0.57542332  0.63782929    -0.09500
C890        C  0.44193517  0.59074673  0.61722478     0.29300
F891        F  0.42499940  0.56309267  0.61785855    -0.20100
H892        H  0.42852980  0.64536957  0.57978229     0.17700
H893        H  0.49003954  0.59365864  0.65046489     0.17700
F894        F  0.49375198  0.67562734  0.61116590    -0.20000
C895        C  0.26811454  0.09260565  0.61264786    -0.21500
C896        C  0.28605725  0.07367492  0.59714668    -0.09500
C897        C  0.30398458  0.09964011  0.60421175     0.29300
C898        C  0.30375924  0.14388907  0.62570953    -0.21500
C899        C  0.28577072  0.16318645  0.64071205    -0.09500
C900        C  0.26790250  0.13675210  0.63427484     0.29300
F901        F  0.25019203  0.15302305  0.64914485    -0.20100
H902        H  0.25412335  0.07335586  0.60786834     0.17700
H903        H  0.31775053  0.16313540  0.63050325     0.17700
F904        F  0.32174698  0.08300621  0.58985121    -0.20000
C905        C  0.23534615  0.02078812  0.42482902    -0.21500
C906        C  0.25285328  0.03907550  0.44284888    -0.09500
C907        C  0.25947913  0.08685995  0.43199186     0.29300
C908        C  0.24921178  0.11454025  0.40308059    -0.21500
C909        C  0.23221695  0.09530912  0.38389848    -0.09500
C910        C  0.22520292  0.04825562  0.39568023     0.29300
F911        F  0.20863976  0.02836761  0.37874263    -0.20100
H912        H  0.22964705  0.98450149  0.43270436     0.17700
H913        H  0.25507756  0.15044937  0.39459524     0.17700
F914        F  0.27600668  0.10686861  0.44892060    -0.20000
C915        C  0.35476968  0.83650578  0.55934223    -0.21500
C916        C  0.35185838  0.88831886  0.55856460    -0.09500
C917        C  0.36852598  0.91958317  0.56052246     0.29300
C918        C  0.38774535  0.89922747  0.56190986    -0.21500
C919        C  0.39069491  0.84747174  0.55981103    -0.09500
C920        C  0.37399826  0.81618495  0.55921017     0.29300
F921        F  0.37625661  0.76622024  0.55693365    -0.20100
H922        H  0.34212653  0.81156086  0.55735859     0.17700
H923        H  0.40040928  0.92423149  0.56180255     0.17700
F924        F  0.36628441  0.96961028  0.55974331    -0.20000
C925        C  0.47582553  0.15198019  0.11518025    -0.21500
C926        C  0.45873538  0.16298791  0.09258782    -0.09500
C927        C  0.44249287  0.12983446  0.09346191     0.29300
C928        C  0.44326346  0.08724049  0.11697114    -0.21500
C929        C  0.46021558  0.07645251  0.13993518    -0.09500
C930        C  0.47659001  0.10923756  0.13877655     0.29300
F931        F  0.49305430  0.10101014  0.16138972    -0.20100
H932        H  0.48852067  0.17687696  0.11502855     0.17700
H933        H  0.43052152  0.06248384  0.11709887     0.17700
F934        F  0.42598050  0.13784331  0.07094399    -0.20000
C935        C  0.42659817  0.83923491  0.33610611    -0.21500
C936        C  0.42669035  0.89057896  0.32894108    -0.09500
C937        C  0.42463367  0.92317798  0.36144716     0.29300
C938        C  0.42395327  0.90458815  0.40037179    -0.21500
C939        C  0.42557930  0.85333813  0.40762855    -0.09500
C940        C  0.42618743  0.82070328  0.37490233     0.29300
F941        F  0.42741353  0.77088574  0.38025415    -0.20100
H942        H  0.42809956  0.81320012  0.31170986     0.17700
H943        H  0.42337235  0.93060599  0.42492145     0.17700
F944        F  0.42406326  0.97301488  0.35581484    -0.20000
C945        C  0.26773679  0.64096928  0.13062832    -0.21500
C946        C  0.28607469  0.66404933  0.13934261    -0.09500
C947        C  0.30384953  0.64161333  0.12587563     0.29300
C948        C  0.30318567  0.59716907  0.10455109    -0.21500
C949        C  0.28486576  0.57399540  0.09590105    -0.09500
C950        C  0.26707146  0.59653350  0.10918460     0.29300
F951        F  0.24898655  0.57593197  0.10148130    -0.20100
H952        H  0.25378652  0.65710942  0.14070331     0.17700
H953        H  0.31715270  0.58112957  0.09446264     0.17700
F954        F  0.32194339  0.66236151  0.13323966    -0.20000
C955        C  0.25979657  0.97391424  0.27217268    -0.21500
C956        C  0.25083272  0.94211537  0.24420141    -0.09500
C957        C  0.23761399  0.96168806  0.21591932     0.29300
C958        C  0.23390227  0.01232873  0.21517005    -0.21500
C959        C  0.24290697  0.04414818  0.24306486    -0.09500
C960        C  0.25604638  0.02455514  0.27147564     0.29300
F961        F  0.26468690  0.05378038  0.29949750    -0.20100
H962        H  0.27029823  0.95972502  0.29390766     0.17700
H963        H  0.22343449  0.02652876  0.19338142     0.17700
F964        F  0.22888869  0.93246418  0.18800006    -0.20000
C965        C  0.26846141  0.94122926  0.09177248    -0.21500
C966        C  0.26132972  0.89423748  0.10290030    -0.09500
C967        C  0.24436549  0.87531458  0.08318199     0.29300
C968        C  0.23464035  0.90335708  0.05379966    -0.21500
C969        C  0.24163979  0.95066468  0.04300694    -0.09500
C970        C  0.25891983  0.96897545  0.06208179     0.29300
F971        F  0.26641894  0.01432209  0.05288828    -0.20100
H972        H  0.28137104  0.95694627  0.10651294     0.17700
H973        H  0.22147292  0.88807940  0.03969428     0.17700
F974        F  0.23656786  0.83065000  0.09345778    -0.20000
C975        C  0.31741537  0.90439909  0.33575351    -0.21500
C976        C  0.31720883  0.85325150  0.32756818    -0.09500
C977        C  0.31809187  0.81968197  0.35963464     0.29300
C978        C  0.31777796  0.83703517  0.39887671    -0.21500
C979        C  0.31637274  0.88806117  0.40703867    -0.09500
C980        C  0.31690764  0.92174849  0.37499487     0.29300
F981        F  0.31609447  0.97143630  0.38138913    -0.20100
H982        H  0.31679735  0.93115583  0.31173777     0.17700
H983        H  0.31749322  0.81022046  0.42287589     0.17700
F984        F  0.31838984  0.76997693  0.35321500    -0.20000
C985        C  0.36967644  0.82226806  0.17448282    -0.21500
C986        C  0.35317826  0.85415041  0.17605366    -0.09500
C987        C  0.35656795  0.90596855  0.17580551     0.29300
C988        C  0.37605923  0.92497728  0.17685019    -0.21500
C989        C  0.39256560  0.89299360  0.17684876    -0.09500
C990        C  0.38915339  0.84130278  0.17422134     0.29300
F991        F  0.40462477  0.80870701  0.17474852    -0.20100
H992        H  0.36750099  0.78246394  0.17490322     0.17700
H993        H  0.37823532  0.96468531  0.17911222     0.17700
F994        F  0.34106797  0.93841293  0.17789171    -0.20000
C995        C  0.50987509  0.83830433  0.05370804    -0.21500
C996        C  0.50403471  0.78911447  0.04602992    -0.09500
C997        C  0.48821385  0.76902485  0.06871816     0.29300
C998        C  0.47877442  0.79722265  0.09836856    -0.21500
C999        C  0.48459825  0.84637945  0.10617584    -0.03100
C1000       C  0.50028155  0.86673009  0.08321767     0.29300
F1001       F  0.50685902  0.91356491  0.09001914    -0.20100
H1002       H  0.52193266  0.85491565  0.03681088     0.17700
H1003       H  0.46698303  0.78011239  0.11569156     0.17700
F1004       F  0.48210178  0.72154215  0.06308869    -0.20000
C1005       C  0.48566529  0.53024799  0.96631211    -0.21500
C1006       C  0.49921910  0.54769620  0.99478997    -0.09500
C1007       C  0.50780988  0.51401861  0.02192331     0.29300
C1008       C  0.50323241  0.46377561  0.01979152    -0.21500
C1009       C  0.48987361  0.44622864  0.99099797    -0.09500
C1010       C  0.48105639  0.48002532  0.96422707     0.29300
F1011       F  0.46780764  0.46469783  0.93622703    -0.20100
H1012       H  0.47928941  0.55509404  0.94439666     0.17700
H1013       H  0.50961544  0.43889602  0.04167503     0.17700
F1014       F  0.52097813  0.52942589  0.05003872    -0.20000
C1015       C  0.48591772  0.58870921  0.79871519    -0.21500
C1016       C  0.48887724  0.53725070  0.79595168    -0.09500
C1017       C  0.50233587  0.51434763  0.82237459     0.29300
C1018       C  0.51226054  0.54228242  0.85127420    -0.21500
C1019       C  0.50919421  0.59378552  0.85450158    -0.09500
C1020       C  0.49605120  0.61686397  0.82741165     0.29300
F1021       F  0.49262325  0.66643345  0.82901544    -0.20100
H1022       H  0.47584726  0.60728199  0.77837170     0.17700
H1023       H  0.52207964  0.52315135  0.87176878     0.17700
F1024       F  0.50545031  0.46457855  0.82120526    -0.20000
C1025       C  0.60348670  0.58555155  0.92711634    -0.21500
C1026       C  0.60052170  0.63717983  0.92364652    -0.09500
C1027       C  0.61711693  0.66785718  0.91772307     0.29300
C1028       C  0.63635904  0.64741931  0.91718134    -0.21500
C1029       C  0.63946773  0.59624522  0.92393315    -0.09500
C1030       C  0.62275894  0.56526894  0.92788208     0.29300
F1031       F  0.62504234  0.51584620  0.93408723    -0.20100
H1032       H  0.59087603  0.56110258  0.93198172     0.17700
H1033       H  0.64894019  0.67238953  0.91414986     0.17700
F1034       F  0.61478076  0.71761984  0.91374046    -0.20000
C1035       C  0.75620537  0.47265451  0.06335855    -0.21500
C1036       C  0.73970704  0.45302594  0.04274150    -0.09500
C1037       C  0.73404910  0.40364458  0.05106486     0.29300
C1038       C  0.74442574  0.37540484  0.07955124    -0.21500
C1039       C  0.76058727  0.39551465  0.10093725    -0.09500
C1040       C  0.76642833  0.44462845  0.09214885     0.29300
F1041       F  0.78192170  0.46604739  0.11166665    -0.20100
H1042       H  0.76106106  0.51031271  0.05770021     0.17700
H1043       H  0.73935739  0.33804691  0.08572319     0.17700
F1044       F  0.71842820  0.38240815  0.03181990    -0.20000
C1045       C  0.49021308  0.71707948  0.27651830    -0.21500
C1046       C  0.49861335  0.69472789  0.24267655    -0.09500
C1047       C  0.50422052  0.72436852  0.21008510     0.29300
C1048       C  0.50172376  0.77554152  0.21164972    -0.21500
C1049       C  0.49331053  0.79791998  0.24541518    -0.09500
C1050       C  0.48759680  0.76832739  0.27797778     0.29300
F1051       F  0.47927395  0.78902390  0.31095266    -0.20100
H1052       H  0.48656549  0.69519830  0.30258746     0.17700
H1053       H  0.50545252  0.79737400  0.18560026     0.17700
F1054       F  0.51246146  0.70379989  0.17698270    -0.20000
C1055       C  0.49281511  0.62594565  0.40001895    -0.21500
C1056       C  0.50977836  0.64485571  0.38045003    -0.09500
C1057       C  0.51670231  0.69231620  0.39123323     0.29300
C1058       C  0.50658861  0.72041125  0.42004766    -0.21500
C1059       C  0.48920877  0.70229501  0.43868657    -0.09500
C1060       C  0.48256264  0.65425117  0.42859326     0.29300
F1061       F  0.46603572  0.63458783  0.44593197    -0.20100
H1062       H  0.48697874  0.58981004  0.39211353     0.17700
H1063       H  0.51224534  0.75693608  0.42727724     0.17700
F1064       F  0.53316422  0.71196400  0.37362682    -0.20000
C1065       C  0.47475455  0.44291363  0.13857779    -0.21500
C1066       C  0.48101504  0.39434136  0.12968022    -0.09500
C1067       C  0.49731159  0.37456462  0.15108764     0.29300
C1068       C  0.50724525  0.40322572  0.17980255    -0.21500
C1069       C  0.50114314  0.45205907  0.18826873    -0.09500
C1070       C  0.48454601  0.47135797  0.16752000     0.29300
F1071       F  0.47806011  0.51835367  0.17419647    -0.20100
H1072       H  0.46241645  0.45944992  0.12250178     0.17700
H1073       H  0.51985378  0.38714037  0.19532428     0.17700
F1074       F  0.50423712  0.32822654  0.14328803    -0.20000
C1075       C  0.56684870  0.58796280  0.08345623    -0.21500
C1076       C  0.56600430  0.63920559  0.07592700    -0.09500
C1077       C  0.56611321  0.67235673  0.10829666     0.29300
C1078       C  0.56559872  0.65429605  0.14722957    -0.21500
C1079       C  0.56474239  0.60303175  0.15462425    -0.09500
C1080       C  0.56608812  0.56991634  0.12236873     0.29300
F1081       F  0.56581154  0.52010387  0.12821865    -0.20100
H1082       H  0.56684325  0.56156890  0.05913800     0.17700
H1083       H  0.56467231  0.68063603  0.17152306     0.17700
F1084       F  0.56573236  0.72217638  0.10244755    -0.20000
C1085       C  0.67542460  0.65034934  0.08572672    -0.21500
C1086       C  0.67635880  0.59932532  0.07715834    -0.09500
C1087       C  0.67667590  0.56549096  0.10914514     0.29300
C1088       C  0.67723466  0.58257928  0.14847698    -0.21500
C1089       C  0.67772624  0.63364271  0.15692689    -0.09500
C1090       C  0.67621425  0.66744170  0.12509811     0.29300
F1091       F  0.67614251  0.71707977  0.13184250    -0.20100
H1092       H  0.67518548  0.67730761  0.06183104     0.17700
H1093       H  0.67834097  0.55563778  0.17229023     0.17700
F1094       F  0.67727027  0.51583057  0.10252149    -0.20000
C1095       C  0.60384519  0.65016897  0.30259346    -0.21500
C1096       C  0.60040268  0.59870911  0.30470400    -0.09500
C1097       C  0.61668975  0.56660633  0.30943151     0.29300
C1098       C  0.63612226  0.58578908  0.31085197    -0.21500
C1099       C  0.63966840  0.63708217  0.30609116    -0.09500
C1100       C  0.62327032  0.66919670  0.30257167     0.29300
F1101       F  0.62601340  0.71868058  0.29761050    -0.20100
H1102       H  0.59148262  0.67560637  0.29838889     0.17700
H1103       H  0.64850099  0.56003762  0.31313688     0.17700
F1104       F  0.61386024  0.51682540  0.31159921    -0.20000
C1105       C  0.73714986  0.51292880  0.42094553    -0.21500
C1106       C  0.75353196  0.53437169  0.44077358    -0.09500
C1107       C  0.75807710  0.58442514  0.43318286     0.29300
C1108       C  0.74675932  0.61173240  0.40573277    -0.21500
C1109       C  0.73082362  0.58973192  0.38483709    -0.09500
C1110       C  0.72599775  0.53998227  0.39320491     0.29300
F1111       F  0.71070435  0.51703214  0.37416446    -0.20100
H1112       H  0.73313692  0.47459493  0.42633723     0.17700
H1113       H  0.75099361  0.64977481  0.39975917     0.17700
F1114       F  0.77342591  0.60711239  0.45222125    -0.20000
C1115       C  0.73687798  0.51462246  0.21317995    -0.21500
C1116       C  0.74373076  0.54325226  0.24530546    -0.09500
C1117       C  0.75486585  0.52067900  0.27570359     0.29300
C1118       C  0.75860182  0.46998323  0.27417924    -0.21500
C1119       C  0.75138392  0.44124232  0.24239057    -0.09500
C1120       C  0.74047612  0.46399274  0.21181720     0.29300
F1121       F  0.73406127  0.43794049  0.17970502    -0.20100
H1122       H  0.72806106  0.53127664  0.18966721     0.17700
H1123       H  0.76753668  0.45323571  0.29747036     0.17700
F1124       F  0.76130593  0.54685738  0.30774406    -0.20000
C1125       C  0.55338690  0.35498013  0.38247319    -0.21500
C1126       C  0.53576144  0.32847184  0.39031420    -0.09500
C1127       C  0.51754684  0.34640870  0.37494195     0.29300
C1128       C  0.51711103  0.38971307  0.35222873    -0.21500
C1129       C  0.53473787  0.41606350  0.34421667    -0.09500
C1130       C  0.55294869  0.39831970  0.35977437     0.29300
F1131       F  0.57038329  0.42278116  0.35330934    -0.20100
H1132       H  0.56757934  0.34245180  0.39423637     0.17700
H1133       H  0.50292130  0.40222548  0.34044194     0.17700
F1134       F  0.50009403  0.32211136  0.38151993    -0.20000
C1135       C  0.50882243  0.34037584  0.55094947    -0.21500
C1136       C  0.50456149  0.28975930  0.54566593    -0.09500
C1137       C  0.48944451  0.26803584  0.56909280     0.29300
C1138       C  0.47926370  0.29604748  0.59767960    -0.21500
C1139       C  0.48372177  0.34646490  0.60359724    -0.09500
C1140       C  0.49846925  0.36862352  0.57937467     0.29300
F1141       F  0.50342614  0.41709484  0.58393560    -0.20100
H1142       H  0.52022179  0.35817828  0.53304258     0.17700
H1143       H  0.46813974  0.27772234  0.61593050     0.17700
F1144       F  0.48490552  0.21917771  0.56543939    -0.20000
C1145       C  0.48689596  0.09172153  0.30213754    -0.21500
C1146       C  0.49110773  0.04097571  0.29708975    -0.09500
C1147       C  0.50637904  0.01966577  0.32039681     0.29300
C1148       C  0.51673602  0.04806199  0.34846693    -0.21500
C1149       C  0.51235200  0.09857803  0.35414622    -0.09500
C1150       C  0.49743275  0.12037436  0.33009172     0.29300
F1151       F  0.49252350  0.16895895  0.33430340    -0.20100
H1152       H  0.47542589  0.10933712  0.28435071     0.17700
H1153       H  0.52795067  0.02991212  0.36655460     0.17700
F1154       F  0.51095666  0.97077398  0.31710369    -0.20000
C1155       C  0.48598328  0.03385040  0.46877430    -0.21500
C1156       C  0.50207819  0.04825241  0.49269286    -0.09500
C1157       C  0.51235936  0.01198747  0.51502633     0.29300
C1158       C  0.50675382  0.96247694  0.51291354    -0.21500
C1159       C  0.49063863  0.94800154  0.48918140    -0.09500
C1160       C  0.48025945  0.98427612  0.46691013     0.29300
F1161       F  0.46430809  0.97225094  0.44390228    -0.20100
H1162       H  0.47813848  0.06071455  0.45060547     0.17700
H1163       H  0.51462270  0.93572222  0.53114076     0.17700
F1164       F  0.52812993  0.02397243  0.53850766    -0.20000
C1165       C  0.69001837  0.89370132  0.37583899    -0.21500
C1166       C  0.70837917  0.91323159  0.38875413    -0.09500
C1167       C  0.72607380  0.88720871  0.37979670     0.29300
C1168       C  0.72526503  0.84247291  0.35900785    -0.21500
C1169       C  0.70690376  0.82264425  0.34640354    -0.09500
C1170       C  0.68922243  0.84901258  0.35484061     0.29300
F1171       F  0.67114487  0.83202010  0.34271121    -0.20100
H1172       H  0.67614292  0.91286475  0.38223307     0.17700
H1173       H  0.73916909  0.82342336  0.35264620     0.17700
F1174       F  0.74420414  0.90439097  0.39146846    -0.20000
C1175       C  0.60693662  0.09345093  0.42123544    -0.21500
C1176       C  0.60410161  0.14447870  0.42911047    -0.09500
C1177       C  0.62091448  0.17434341  0.43581364     0.29300
C1178       C  0.64000039  0.15335422  0.43548163    -0.21500
C1179       C  0.64268818  0.10202533  0.42983067    -0.09500
C1180       C  0.62602847  0.07217813  0.42232896     0.29300
F1181       F  0.62816545  0.02256513  0.41689824    -0.20100
H1182       H  0.59423333  0.06927797  0.41660935     0.17700
H1183       H  0.65268500  0.17694717  0.44198038     0.17700
F1184       F  0.61889677  0.22333487  0.44425237    -0.20000
C1185       C  0.75989890  0.15203939  0.30257049    -0.21500
C1186       C  0.75329839  0.20004127  0.29272028    -0.09500
C1187       C  0.73643816  0.21911238  0.31297159     0.29300
C1188       C  0.72687847  0.19130084  0.34272284    -0.21500
C1189       C  0.73357095  0.14349646  0.35277466    -0.09500
C1190       C  0.75017149  0.12397626  0.33200197     0.29300
F1191       F  0.75761625  0.07855893  0.34119517    -0.20100
H1192       H  0.77274952  0.13615250  0.28761216     0.17700
H1193       H  0.71429883  0.20757624  0.35832437     0.17700
F1194       F  0.72937310  0.26520401  0.30482932    -0.20000
C1195       C  0.73415531  0.22506318  0.51722897    -0.21500
C1196       C  0.74357168  0.19248668  0.49034077    -0.09500
C1197       C  0.75651148  0.21169449  0.46125391     0.29300
C1198       C  0.76018701  0.26237420  0.45983100    -0.21500
C1199       C  0.75122314  0.29465968  0.48751855    -0.09500
C1200       C  0.73767699  0.27572478  0.51556359     0.29300
F1201       F  0.72856808  0.30558801  0.54265349    -0.20100
H1202       H  0.72362452  0.21137783  0.53921454     0.17700
H1203       H  0.77076868  0.27616270  0.43798094     0.17700
F1204       F  0.76522034  0.18195250  0.43358186    -0.20000
C1205       C  0.51709538  0.89681167  0.85870296    -0.21500
C1206       C  0.53529378  0.91422195  0.84307816    -0.09500
C1207       C  0.55281248  0.88657785  0.84999241     0.29300
C1208       C  0.55205206  0.84275328  0.87193469    -0.21500
C1209       C  0.53391509  0.82532778  0.88768962    -0.09500
C1210       C  0.51635127  0.85292489  0.88086078     0.29300
F1211       F  0.49850263  0.83818204  0.89603791    -0.20100
H1212       H  0.50336841  0.91724642  0.85385894     0.17700
H1213       H  0.56582704  0.82249077  0.87670816     0.17700
F1214       F  0.57073793  0.90130617  0.83519036    -0.20000
C1215       C  0.51121149  0.22856629  0.71388187    -0.21500
C1216       C  0.50299597  0.19689764  0.74282956    -0.09500
C1217       C  0.49074109  0.21677634  0.77284056     0.29300
C1218       C  0.48665745  0.26732420  0.77341147    -0.21500
C1219       C  0.49454883  0.29881205  0.74400217    -0.09500
C1220       C  0.50718043  0.27913388  0.71451785     0.29300
F1221       F  0.51486782  0.30808341  0.68518102    -0.20100
H1222       H  0.52114380  0.21421914  0.69109173     0.17700
H1223       H  0.47672932  0.28167190  0.79620609     0.17700
F1224       F  0.48330506  0.18792684  0.80248225    -0.20000
C1225       C  0.51684185  0.19421766  0.88909192    -0.21500
C1226       C  0.51132124  0.14497642  0.88078738    -0.09500
C1227       C  0.49514150  0.12440969  0.90217381     0.29300
C1228       C  0.48451687  0.15303512  0.93006053    -0.21500
C1229       C  0.48984181  0.20257307  0.93777513    -0.09500
C1230       C  0.50640229  0.22258238  0.91725779     0.29300
F1231       F  0.51228052  0.27012631  0.92349421    -0.20100
H1232       H  0.52909178  0.21135705  0.87309722     0.17700
H1233       H  0.47202608  0.13632715  0.94559757     0.17700
F1234       F  0.48903352  0.07721695  0.89520760    -0.20000
C1235       C  0.57133182  0.09095339  0.58654113    -0.21500
C1236       C  0.56859842  0.14187534  0.57914394    -0.09500
C1237       C  0.56795819  0.17473420  0.61175928     0.29300
C1238       C  0.56833075  0.15641728  0.65068410    -0.21500
C1239       C  0.56915943  0.10512700  0.65793933    -0.09500
C1240       C  0.57153833  0.07263773  0.62550057     0.29300
F1241       F  0.57322623  0.02298492  0.63130799    -0.20100
H1242       H  0.57214554  0.06477921  0.56212377     0.17700
H1243       H  0.56663090  0.18232873  0.67511760     0.17700
F1244       F  0.56595093  0.22436512  0.60623415    -0.20000
C1245       C  0.48717411  0.97310700  0.66947162    -0.21500
C1246       C  0.50412060  0.95324333  0.68860798    -0.09500
C1247       C  0.50970829  0.90413419  0.67927575     0.29300
C1248       C  0.49909786  0.87675561  0.65060090    -0.21500
C1249       C  0.48266937  0.89742155  0.63028177    -0.09500
C1250       C  0.47662456  0.94584363  0.64071683     0.29300
F1251       F  0.46060035  0.96725993  0.62290653    -0.20100
H1252       H  0.48220195  0.01040889  0.67626643     0.17700
H1253       H  0.50418084  0.83965031  0.64345099     0.17700
F1254       F  0.52543208  0.88233943  0.69779718    -0.20000
C1255       C  0.69313204  0.34041262  0.86238342    -0.21500
C1256       C  0.71084665  0.32556305  0.84331477    -0.09500
C1257       C  0.72778316  0.35646978  0.84607129     0.29300
C1258       C  0.72695347  0.40057937  0.86816154    -0.21500
C1259       C  0.70922136  0.41508151  0.88747611    -0.09500
C1260       C  0.69224888  0.38447248  0.88410472     0.29300
F1261       F  0.67482160  0.39625708  0.90259013    -0.20100
H1262       H  0.67982508  0.31767805  0.86067368     0.17700
H1263       H  0.74019107  0.42354164  0.86999007     0.17700
F1264       F  0.74500340  0.34483026  0.82677555    -0.20000
C1265       C  0.67931980  0.08260974  0.65075139    -0.21500
C1266       C  0.67817225  0.13373160  0.65862081    -0.09500
C1267       C  0.67549482  0.16666393  0.62659599     0.29300
C1268       C  0.67553148  0.14898202  0.58744404    -0.21500
C1269       C  0.67842154  0.09827783  0.57937105    -0.09500
C1270       C  0.67955495  0.06492561  0.61162079     0.29300
F1271       F  0.68189990  0.01547742  0.60551553    -0.20100
H1272       H  0.68132877  0.05634440  0.67486719     0.17700
H1273       H  0.67440395  0.17554921  0.56332780     0.17700
F1274       F  0.67363429  0.21616753  0.63297912    -0.20000
C1275       C  0.62026865  0.06686409  0.81338844    -0.21500
C1276       C  0.60392303  0.09878308  0.80859630    -0.09500
C1277       C  0.60746317  0.15039786  0.80664620     0.29300
C1278       C  0.62697783  0.16915315  0.80696653    -0.21500
C1279       C  0.64342558  0.13722642  0.81032013    -0.09500
C1280       C  0.63980600  0.08580186  0.81502373     0.29300
F1281       F  0.65520154  0.05321665  0.81810008    -0.20100
H1282       H  0.61795493  0.02714632  0.81476837     0.17700
H1283       H  0.62925928  0.20860491  0.80292857     0.17700
F1284       F  0.59212868  0.18266052  0.80106222    -0.20000
C1285       C  0.74994698  0.36326087  0.65597077    -0.21500
C1286       C  0.76232292  0.33866535  0.62826364    -0.09500
C1287       C  0.76405869  0.28658120  0.63098885     0.29300
C1288       C  0.75363009  0.26028517  0.66031000    -0.21500
C1289       C  0.74096347  0.28473035  0.68736352    -0.09500
C1290       C  0.73930606  0.33668250  0.68508139     0.29300
F1291       F  0.72773715  0.36191112  0.71143520    -0.20100
H1292       H  0.74816802  0.40315813  0.65467334     0.17700
H1293       H  0.75522422  0.22030851  0.66142578     0.17700
F1294       F  0.77548294  0.26056214  0.60485180    -0.20000
C1295       C  0.22590101  0.40003445  0.36780936    -0.21500
C1296       C  0.20853631  0.41490244  0.38810857    -0.09500
C1297       C  0.19135886  0.38482365  0.38580727     0.29300
C1298       C  0.19166519  0.34102624  0.36364004    -0.21500
C1299       C  0.20904380  0.32604704  0.34347149    -0.09500
C1300       C  0.22619667  0.35620496  0.34559636     0.29300
F1301       F  0.24314141  0.34411033  0.32552353    -0.20100
H1302       H  0.23930033  0.42249531  0.36898992     0.17700
H1303       H  0.17826787  0.31854695  0.36254112     0.17700
F1304       F  0.17437732  0.39683255  0.40579681    -0.20000
C1305       C  0.23851222  0.39914878  0.54524335    -0.21500
C1306       C  0.24040305  0.45104849  0.54384851    -0.09500
C1307       C  0.25298189  0.47451268  0.57155029     0.29300
C1308       C  0.26314698  0.44680874  0.60025375    -0.21500
C1309       C  0.26117363  0.39489138  0.60221582    -0.09500
C1310       C  0.24888687  0.37117975  0.57387641     0.29300
F1311       F  0.24659358  0.32117029  0.57410182    -0.20100
H1312       H  0.22911352  0.38017111  0.52390942     0.17700
H1313       H  0.27220929  0.46649412  0.62174761     0.17700
F1314       F  0.25490707  0.52464312  0.57190965    -0.20000
C1315       C  0.25928541  0.65244873  0.30067135    -0.21500
C1316       C  0.25544521  0.70335203  0.29593311    -0.09500
C1317       C  0.24088417  0.72563473  0.32057069     0.29300
C1318       C  0.23073599  0.69778931  0.34943766    -0.21500
C1319       C  0.23457891  0.64686488  0.35441813    -0.09500
C1320       C  0.24893082  0.62436460  0.32928808     0.29300
F1321       F  0.25340788  0.57547126  0.33289085    -0.20100
H1322       H  0.27025136  0.63419104  0.28195744     0.17700
H1323       H  0.22003331  0.71652462  0.36844754     0.17700
F1324       F  0.23679098  0.77483282  0.31763133    -0.20000
C1325       C  0.23761661  0.72102150  0.52638472    -0.21500
C1326       C  0.24494990  0.69135535  0.49514304    -0.09500
C1327       C  0.25599788  0.71342756  0.46435028     0.29300
C1328       C  0.25882950  0.76448271  0.46406496    -0.21500
C1329       C  0.25111701  0.79437776  0.49479549    -0.09500
C1330       C  0.24061831  0.77210678  0.52628917     0.29300
F1331       F  0.23388098  0.79919502  0.55764427    -0.20100
H1332       H  0.22887362  0.70476260  0.55022808     0.17700
H1333       H  0.26751284  0.78066249  0.44009746     0.17700
F1334       F  0.26312910  0.68628116  0.43336767    -0.20000
C1335       C  0.01841858  0.84142786  0.37581686    -0.21500
C1336       C  0.03648468  0.82188820  0.39017780    -0.09500
C1337       C  0.05438286  0.84760097  0.38209207     0.29300
C1338       C  0.05404330  0.89187894  0.36051639    -0.21500
C1339       C  0.03595792  0.91163248  0.34641453    -0.09500
C1340       C  0.01808893  0.88564521  0.35413616     0.29300
F1341       F  0.00025188  0.90240521  0.34042436    -0.20100
H1342       H  0.00441943  0.82254743  0.38147419     0.17700
H1343       H  0.06804899  0.91072375  0.35484249     0.17700
F1344       F  0.07225968  0.83057689  0.39541301    -0.20000
C1345       C  0.13854181  0.65068187  0.42184933    -0.21500
C1346       C  0.14230630  0.59935870  0.42513920    -0.09500
C1347       C  0.12605881  0.56651115  0.42527632     0.29300
C1348       C  0.10649171  0.58492263  0.42461896    -0.21500
C1349       C  0.10275836  0.63639057  0.42505004    -0.09500
C1350       C  0.11896812  0.66913705  0.42241961     0.29300
F1351       F  0.11591573  0.71891101  0.42206955    -0.20100
H1352       H  0.15079420  0.67690944  0.42178294     0.17700
H1353       H  0.09423718  0.55882639  0.42678285     0.17700
F1354       F  0.12906758  0.51681852  0.42787437    -0.20000
C1355       C  0.00477879  0.51298413  0.31846666    -0.21500
C1356       C  0.99011174  0.53583150  0.29474930    -0.09500
C1357       C  0.98629804  0.58672487  0.30065664     0.29300
C1358       C  0.99662165  0.61344342  0.33017153    -0.21500
C1359       C  0.01088285  0.59013207  0.35475718    -0.09500
C1360       C  0.01492757  0.53941344  0.34814684     0.29300
F1361       F  0.02849118  0.51480010  0.37073907    -0.20100
H1362       H  0.00815419  0.47396535  0.31462290     0.17700
H1363       H  0.99305821  0.65228462  0.33439774     0.17700
F1364       F  0.97274275  0.61087313  0.27772330    -0.20000
C1365       C  0.00383289  0.46469486  0.52933530    -0.21500
C1366       C  0.99508694  0.44160817  0.49629441    -0.09500
C1367       C  0.98940096  0.47029435  0.46323817     0.29300
C1368       C  0.99215527  0.52133874  0.46354353    -0.21500
C1369       C  0.00097577  0.54446091  0.49642033    -0.09500
C1370       C  0.00675743  0.51582127  0.52949460     0.29300
F1371       F  0.01556877  0.53726707  0.56157094    -0.20100
H1372       H  0.00755736  0.44353987  0.55573619     0.17700
H1373       H  0.98838420  0.54238316  0.43711167     0.17700
F1374       F  0.98083214  0.44891229  0.43089126    -0.20000
C1375       C  0.22592642  0.84603027  0.85477507    -0.21500
C1376       C  0.20754740  0.82402998  0.84508600    -0.09500
C1377       C  0.18972864  0.84724794  0.85745972     0.29300
C1378       C  0.19042638  0.89158223  0.87878601    -0.21500
C1379       C  0.20881023  0.91365213  0.88839121    -0.09500
C1380       C  0.22662728  0.89030426  0.87614327     0.29300
F1381       F  0.24478634  0.90987785  0.88483368    -0.20100
H1382       H  0.23988745  0.82918777  0.84552555     0.17700
H1383       H  0.17647054  0.90841672  0.88807448     0.17700
F1384       F  0.17158518  0.82743677  0.84898054    -0.20000
C1385       C  0.17896840  0.58379301  0.65023256    -0.21500
C1386       C  0.17655883  0.63458348  0.65814496    -0.09500
C1387       C  0.17344739  0.66730631  0.62614595     0.29300
C1388       C  0.17402278  0.64977536  0.58694713    -0.21500
C1389       C  0.17796419  0.59948440  0.57887185    -0.09500
C1390       C  0.17984186  0.56632937  0.61110958     0.29300
F1391       F  0.18357647  0.51740129  0.60505882    -0.20100
H1392       H  0.18149425  0.55784399  0.67432908     0.17700
H1393       H  0.17239450  0.67616419  0.56286648     0.17700
F1394       F  0.17055538  0.71649565  0.63264227    -0.20000
C1395       C  0.24059531  0.46473622  0.70974964    -0.21500
C1396       C  0.24936307  0.44176817  0.74281986    -0.09500
C1397       C  0.25378926  0.46982784  0.77690402     0.29300
C1398       C  0.25006044  0.52060398  0.77728231    -0.21500
C1399       C  0.24172105  0.54379369  0.74383945    -0.09500
C1400       C  0.23683410  0.51543587  0.71014289     0.29300
F1401       F  0.22833987  0.53684034  0.67771393    -0.20100
H1402       H  0.23766937  0.44398448  0.68275473     0.17700
H1403       H  0.25295623  0.54141045  0.80426141     0.17700
F1404       F  0.26203699  0.44815773  0.80946760    -0.20000
C1405       C  0.23703902  0.51644708  0.91911652    -0.21500
C1406       C  0.25202792  0.53873898  0.94229838    -0.09500
C1407       C  0.25567905  0.58980765  0.93717769     0.29300
C1408       C  0.24519157  0.61702973  0.90822301    -0.21500
C1409       C  0.23087345  0.59402255  0.88366587    -0.09500
C1410       C  0.22663326  0.54342902  0.89020501     0.29300
F1411       F  0.21274815  0.51936229  0.86803126    -0.20100
H1412       H  0.23365209  0.47741004  0.92265391     0.17700
H1413       H  0.24876383  0.65587990  0.90421176     0.17700
F1414       F  0.26929885  0.61354727  0.96019433    -0.20000
C1415       C  0.26544078  0.79323889  0.63953188    -0.21500
C1416       C  0.26060815  0.84337578  0.63300096    -0.09500
C1417       C  0.24539137  0.86479951  0.65665917     0.29300
C1418       C  0.23495574  0.83616509  0.68485658    -0.21500
C1419       C  0.23958210  0.78578150  0.69076222    -0.09500
C1420       C  0.25523527  0.76489620  0.66806343     0.29300
F1421       F  0.26033526  0.71646280  0.67241229    -0.20100
H1422       H  0.27692540  0.77539567  0.62182705     0.17700
H1423       H  0.22319682  0.85354429  0.70213939     0.17700
F1424       F  0.24004475  0.91298144  0.65173902    -0.20000
C1425       C  0.01726708  0.38864737  0.85586659    -0.21500
C1426       C  0.03516496  0.41452904  0.84908806    -0.09500
C1427       C  0.05308043  0.39571339  0.86498390     0.29300
C1428       C  0.05302472  0.35153866  0.88647824    -0.21500
C1429       C  0.03518096  0.32526094  0.89281340    -0.09500
C1430       C  0.01720588  0.34447353  0.87746469     0.29300
F1431       F  0.99956519  0.32056565  0.88288626    -0.20100
H1432       H  0.00327070  0.40209622  0.84382402     0.17700
H1433       H  0.06704654  0.33810244  0.89841257     0.17700
F1434       F  0.07071417  0.41975627  0.85982249    -0.20000
C1435       C  0.06658828  0.64905754  0.65032488    -0.21500
C1436       C  0.06637233  0.59786746  0.65813944    -0.09500
C1437       C  0.06790280  0.56458477  0.62595287     0.29300
C1438       C  0.06829929  0.58239072  0.58680064    -0.21500
C1439       C  0.06694563  0.63355039  0.57895248    -0.09500
C1440       C  0.06674900  0.66682304  0.61127114     0.29300
F1441       F  0.06578083  0.71655739  0.60529440    -0.20100
H1442       H  0.06545148  0.67557747  0.67445657     0.17700
H1443       H  0.06853370  0.55586861  0.56257874     0.17700
F1444       F  0.06827384  0.51483215  0.63213968    -0.20000
C1445       C  0.11810615  0.56674850  0.80997549    -0.21500
C1446       C  0.10149728  0.59825366  0.80951039    -0.09500
C1447       C  0.10453383  0.65011382  0.81089686     0.29300
C1448       C  0.12385237  0.66981429  0.81006204    -0.21500
C1449       C  0.14045981  0.63833634  0.80915579    -0.09500
C1450       C  0.13742732  0.58643754  0.81045682     0.29300
F1451       F  0.15311569  0.55450432  0.80884975    -0.20100
H1452       H  0.11613130  0.52691085  0.80854728     0.17700
H1453       H  0.12582377  0.70965524  0.80874976     0.17700
F1454       F  0.08883421  0.68201236  0.80967390    -0.20000
C1455       C  0.98668551  0.46664637  0.67406548    -0.21500
C1456       C  0.00293987  0.44635179  0.69494319    -0.09500
C1457       C  0.00816344  0.39647343  0.68779433     0.29300
C1458       C  0.99797651  0.36875773  0.65886910    -0.21500
C1459       C  0.98246497  0.39016159  0.63640165    -0.09500
C1460       C  0.97657989  0.43913061  0.64518851     0.29300
F1461       F  0.96133859  0.46109743  0.62521808    -0.20100
H1462       H  0.98205052  0.50460298  0.67930492     0.17700
H1463       H  0.00280561  0.33110889  0.65295486     0.17700
F1464       F  0.02317415  0.37450291  0.70843265    -0.20000
C1465       C  0.94058827  0.63620552  0.10250861    -0.21500
C1466       C  0.95834032  0.66364591  0.09861577    -0.09500
C1467       C  0.97593217  0.64532322  0.11620759     0.29300
C1468       C  0.97571417  0.60029588  0.13669619    -0.21500
C1469       C  0.95799882  0.57269174  0.14037210    -0.09500
C1470       C  0.94036034  0.59121178  0.12307398     0.29300
F1471       F  0.92290156  0.56578834  0.12560534    -0.20100
H1472       H  0.92685433  0.64910778  0.08898501     0.17700
H1473       H  0.98944429  0.58743670  0.15026248     0.17700
F1474       F  0.99335165  0.67094401  0.11397532    -0.20000
C1475       C  0.97963540  0.94575426  0.13833966    -0.21500
C1476       C  0.98411270  0.89534978  0.13225152    -0.09500
C1477       C  0.99910580  0.87332110  0.15590639     0.29300
C1478       C  0.00923585  0.90119182  0.18476026    -0.21500
C1479       C  0.00463499  0.95145369  0.19092823    -0.09500
C1480       C  0.98968850  0.97350179  0.16725618     0.29300
F1481       F  0.98514408  0.02236257  0.17114103    -0.20100
H1482       H  0.96851350  0.96413559  0.12017256     0.17700
H1483       H  0.02068610  0.88329319  0.20242061     0.17700
F1484       F  0.00452009  0.82528062  0.15039052    -0.20000
C1485       C  0.00972209  0.01269087  0.02361033    -0.21500
C1486       C  0.00215547  0.04287154  0.99302883    -0.09500
C1487       C  0.99059277  0.02160998  0.96271516     0.29300
C1488       C  0.98698401  0.97087645  0.96281819    -0.21500
C1489       C  0.99458786  0.94060456  0.99331204    -0.09500
C1490       C  0.00607373  0.96194625  0.02377709     0.29300
F1491       F  0.01309056  0.93439395  0.05456616    -0.20100
H1492       H  0.01899523  0.02829584  0.04687405     0.17700
H1493       H  0.97775168  0.95533621  0.93946701     0.17700
F1494       F  0.98360314  0.04921804  0.93193460    -0.20000
C1495       C  0.98566673  0.65000048  0.93638273    -0.21500
C1496       C  0.99048017  0.70011126  0.94272297    -0.09500
C1497       C  0.00577912  0.72142245  0.91935227     0.29300
C1498       C  0.01548208  0.69367857  0.88978538    -0.21500
C1499       C  0.01050663  0.64375348  0.88295357    -0.09500
C1500       C  0.99562531  0.62194194  0.90717137     0.29300
F1501       F  0.99018121  0.57390356  0.90195091    -0.20100
H1502       H  0.97415513  0.63239794  0.95412744     0.17700
H1503       H  0.02673253  0.71174815  0.87168050     0.17700
F1504       F  0.01102392  0.76968858  0.92411576    -0.20000
C1505       C  0.76612791  0.08828953  0.11160694    -0.21500
C1506       C  0.78401449  0.06873367  0.09635659    -0.09500
C1507       C  0.80193149  0.09493531  0.10232651     0.29300
C1508       C  0.80183752  0.13990749  0.12295260    -0.21500
C1509       C  0.78391152  0.15994369  0.13783099    -0.09500
C1510       C  0.76598124  0.13351866  0.13192850     0.29300
F1511       F  0.74828979  0.15087799  0.14606121    -0.20100
H1512       H  0.75211444  0.06905219  0.10701542     0.17700
H1513       H  0.81589542  0.15898987  0.12737079     0.17700
F1514       F  0.81960979  0.07681713  0.08872277    -0.20000
C1515       C  0.76790944  0.07239379  0.91695520    -0.21500
C1516       C  0.75826395  0.03182081  0.93482969    -0.09500
C1517       C  0.73844640  0.02110426  0.92354575     0.29300
C1518       C  0.72857166  0.05027281  0.89517648    -0.21500
C1519       C  0.73793946  0.09168564  0.87807336    -0.09500
C1520       C  0.75782922  0.10236657  0.88913886     0.29300
F1521       F  0.76780679  0.14060702  0.87194820    -0.20100
H1522       H  0.78312605  0.08146211  0.92510134     0.17700
H1523       H  0.71349690  0.04044897  0.88654056     0.17700
F1524       F  0.72871254  0.98159216  0.93939954    -0.20000
C1525       C  0.86812948  0.91936149  0.05462653    -0.21500
C1526       C  0.85241875  0.88595895  0.06096943    -0.09500
C1527       C  0.85712093  0.83608393  0.07052340     0.29300
C1528       C  0.87685967  0.81916793  0.06938419    -0.21500
C1529       C  0.89238828  0.85179148  0.06032075    -0.09500
C1530       C  0.88797619  0.90256191  0.05448575     0.29300
F1531       F  0.90268371  0.93513025  0.04489905    -0.20100
H1532       H  0.86501752  0.95758576  0.04688576     0.17700
H1533       H  0.87995265  0.78021074  0.07434521     0.17700
F1534       F  0.84249590  0.80268883  0.07867174    -0.20000
C1535       C  0.76942074  0.79503285  0.15083797    -0.21500
C1536       C  0.76308420  0.84356347  0.14236352    -0.09500
C1537       C  0.74673798  0.86310857  0.16376342     0.29300
C1538       C  0.73634253  0.83379021  0.19126997    -0.21500
C1539       C  0.74197701  0.78434185  0.19822750    -0.09500
C1540       C  0.75900496  0.76559779  0.17835383     0.29300
F1541       F  0.76502055  0.71798586  0.18382365    -0.20100
H1542       H  0.78168977  0.77871004  0.13430556     0.17700
H1543       H  0.72362574  0.84966554  0.20669416     0.17700
F1544       F  0.74039251  0.91023135  0.15716621    -0.20000
C1545       C  0.75143575  0.77703042  0.95932631    -0.21500
C1546       C  0.74068322  0.80665284  0.98643793    -0.09500
C1547       C  0.72581724  0.78482753  0.00977887     0.29300
C1548       C  0.72356922  0.73358234  0.00986556    -0.21500
C1549       C  0.73561741  0.70295413  0.98556756    -0.09500
C1550       C  0.74898365  0.72545143  0.95881136     0.29300
F1551       F  0.76001722  0.69785691  0.93307869    -0.20100
H1552       H  0.76326355  0.79329793  0.94157946     0.17700
H1553       H  0.71255229  0.71781808  0.02985629     0.17700
F1554       F  0.71547555  0.81236627  0.03671488    -0.20000
C1555       C  0.97587912  0.08989400  0.62437135    -0.21500
C1556       C  0.95804651  0.07449027  0.64265246    -0.09500
C1557       C  0.94082301  0.10417798  0.63858720     0.29300
C1558       C  0.94148342  0.14765348  0.61602115    -0.21500
C1559       C  0.95928451  0.16270259  0.59738735    -0.09500
C1560       C  0.97656463  0.13343516  0.60201021     0.29300
F1561       F  0.99406729  0.14604217  0.58421776    -0.20100
H1562       H  0.98938757  0.06800107  0.62714729     0.17700
H1563       H  0.92800298  0.16965083  0.61321021     0.17700
F1564       F  0.92341307  0.09188963  0.65689163    -0.20000
C1565       C  0.98498922  0.08444223  0.80418811    -0.21500
C1566       C  0.99120271  0.03586010  0.79502985    -0.09500
C1567       C  0.00842937  0.01737216  0.81426206     0.29300
C1568       C  0.01849158  0.04592968  0.84286285    -0.21500
C1569       C  0.01200902  0.09404886  0.85272374    -0.09500
C1570       C  0.99528165  0.11335561  0.83233550     0.29300
F1571       F  0.98827516  0.15946577  0.84067866    -0.20100
H1572       H  0.97200653  0.10013596  0.78967025     0.17700
H1573       H  0.03123537  0.02982488  0.85793013     0.17700
F1574       F  0.01534530  0.97105000  0.80636893    -0.20000
C1575       C  0.92817411  0.83234674  0.83734077    -0.21500
C1576       C  0.92782512  0.88351069  0.82939813    -0.09500
C1577       C  0.92614779  0.91692366  0.86140467     0.29300
C1578       C  0.92614000  0.89949373  0.90052597    -0.21500
C1579       C  0.92808017  0.84857239  0.90859618    -0.09500
C1580       C  0.92843090  0.81490315  0.87651526     0.29300
F1581       F  0.92996642  0.76530502  0.88281809    -0.20100
H1582       H  0.92947289  0.80581027  0.81324796     0.17700
H1583       H  0.92575905  0.92628892  0.92455029     0.17700
F1584       F  0.92534926  0.96660666  0.85505300    -0.20000
C1585       C  0.97974945  0.79108642  0.59949709    -0.21500
C1586       C  0.98335158  0.84219770  0.60404193    -0.09500
C1587       C  0.99774836  0.86449223  0.57894183     0.29300
C1588       C  0.00832095  0.83602880  0.55072914    -0.21500
C1589       C  0.00468747  0.78491309  0.54646159    -0.09500
C1590       C  0.99016193  0.76286252  0.57121303     0.29300
F1591       F  0.98640299  0.71346141  0.56905964    -0.20100
H1592       H  0.96908688  0.77238678  0.61857085     0.17700
H1593       H  0.01929552  0.85412474  0.53198311     0.17700
F1594       F  0.00204552  0.91350921  0.58219906    -0.20000
C1595       C  0.00243110  0.77064915  0.70907595    -0.21500
C1596       C  0.99338809  0.79327689  0.74210778    -0.09500
C1597       C  0.98768721  0.76415673  0.77494517     0.29300
C1598       C  0.99088612  0.71321212  0.77454822    -0.21500
C1599       C  0.00004518  0.69058690  0.74169179    -0.09500
C1600       C  0.00571954  0.71962963  0.70875633     0.29300
F1601       F  0.01473137  0.69869289  0.67660164    -0.20100
H1602       H  0.00614902  0.79207639  0.68280646     0.17700
H1603       H  0.98714309  0.69187821  0.80085680     0.17700
F1604       F  0.97875619  0.78499926  0.80722046    -0.20000
C1605       C  0.76767437  0.59539457  0.60153628    -0.21500
C1606       C  0.78616905  0.57360092  0.59185912    -0.09500
C1607       C  0.80384968  0.59810895  0.60308530     0.29300
C1608       C  0.80291882  0.64282572  0.62395550    -0.21500
C1609       C  0.78443028  0.66423798  0.63412914    -0.09500
C1610       C  0.76674379  0.64019880  0.62230804     0.29300
F1611       F  0.74850546  0.65949992  0.63102034    -0.20100
H1612       H  0.75379212  0.57787603  0.59284890     0.17700
H1613       H  0.81680061  0.66036075  0.63262765     0.17700
F1614       F  0.82209183  0.57910117  0.59404254    -0.20000
C1615       C  0.75642600  0.97212565  0.56556387    -0.21500
C1616       C  0.74100417  0.95032731  0.54315645    -0.09500
C1617       C  0.73635036  0.90013657  0.54977600     0.29300
C1618       C  0.74663081  0.87295418  0.57874292    -0.21500
C1619       C  0.76158725  0.89523026  0.60212971    -0.09500
C1620       C  0.76652922  0.94515170  0.59487684     0.29300
F1621       F  0.78088977  0.96828941  0.61647435    -0.20100
H1622       H  0.76041744  0.01064005  0.56100916     0.17700
H1623       H  0.74235734  0.83471960  0.58374685     0.17700
F1624       F  0.72189753  0.87717646  0.52830671    -0.20000
C1625       C  0.74175167  0.96568991  0.70607849    -0.21500
C1626       C  0.74914003  0.94150703  0.73997085    -0.09500
C1627       C  0.75448491  0.96955135  0.77362409     0.29300
C1628       C  0.75259495  0.02090774  0.77314744    -0.21500
C1629       C  0.74498807  0.04497800  0.73947689    -0.09500
C1630       C  0.73971437  0.01708790  0.70574406     0.29300
F1631       F  0.73214573  0.03960444  0.67289002    -0.20100
H1632       H  0.73832817  0.94505307  0.67926324     0.17700
H1633       H  0.75595773  0.04153658  0.80000340     0.17700
F1634       F  0.76171805  0.94721446  0.80685023    -0.20000
C1635       C  0.80797247  0.80019618  0.85960042    -0.21500
C1636       C  0.81131519  0.83730750  0.83086862    -0.09500
C1637       C  0.81485268  0.88621223  0.84364491     0.29300
C1638       C  0.81413125  0.89777098  0.88416402    -0.21500
C1639       C  0.80962315  0.86110233  0.91254913    -0.09500
C1640       C  0.80700558  0.81188882  0.89997216     0.29300
F1641       F  0.80308991  0.77519006  0.92652127    -0.20100
H1642       H  0.80526954  0.76214395  0.85077566     0.17700
H1643       H  0.81608570  0.93606001  0.89313737     0.17700
F1644       F  0.81788983  0.92340741  0.81709225    -0.20000
C1645       C  0.86780168  0.81649605  0.68220459    -0.21500
C1646       C  0.85136884  0.84863894  0.68050151    -0.09500
C1647       C  0.85498929  0.90022909  0.67679425     0.29300
C1648       C  0.87452554  0.91899939  0.67763826    -0.21500
C1649       C  0.89089892  0.88689281  0.68054262    -0.09500
C1650       C  0.88734841  0.83520249  0.68157373     0.29300
F1651       F  0.90275867  0.80270439  0.68498688    -0.20100
H1652       H  0.86551602  0.77690446  0.68518795     0.17700
H1653       H  0.87683939  0.95874944  0.67696156     0.17700
F1654       F  0.83962931  0.93309527  0.67506222    -0.20000
C1655       C  0.75573364  0.65048276  0.79790108    -0.21500
C1656       C  0.75036149  0.69983292  0.78988231    -0.09500
C1657       C  0.73443560  0.72095977  0.81179378     0.29300
C1658       C  0.72471167  0.69379348  0.84166599    -0.21500
C1659       C  0.73033873  0.64473486  0.85025867    -0.09500
C1660       C  0.74582421  0.62307297  0.82743014     0.29300
F1661       F  0.75200377  0.57593240  0.83448603    -0.20100
H1662       H  0.76775947  0.63302741  0.78141541     0.17700
H1663       H  0.71298307  0.71168301  0.85869757     0.17700
F1664       F  0.72858672  0.76851790  0.80538252    -0.20000
loop_ 
_geom_bond_atom_site_label_1 
_geom_bond_atom_site_label_2 
_geom_bond_distance 
_geom_bond_site_symmetry_2 
_ccdc_geom_bond_type 
O1          Cr19   1.955       .  S
O1            C9   1.255       .  A
O2          Cr19   2.043       .  S
O2            C3   1.276       .  A
C3            O4   1.260       .  A
C3         C1656   1.493       .  S
O4          Cr20   1.970       .  S
O5          Cr20   2.027       .  S
O5            C6   1.265       .  A
C6            O7   1.243       .  A
C6         C1626   1.460       .  S
O7          Cr21   1.944       .  S
O8          Cr21   2.015       .  S
O8            C9   1.266       .  A
C9         C1636   1.479       .  S
O10         Cr19   2.054       .  S
O10          C18   1.278       .  A
O11         Cr19   1.963       .  S
O11          C12   1.261       .  A
C12          O13   1.271       .  A
C12        C1609   1.480       .  S
O13         Cr20   2.019       .  S
O14         Cr20   1.968       .  S
O14          C15   1.262       .  A
C15          O16   1.274       .  A
C15        C1619   1.486       .  S
O16         Cr21   2.033       .  S
O17         Cr21   1.951       .  S
O17          C18   1.254       .  A
C18        C1646   1.490       .  S
Cr19         O22   1.758       .  S
Cr20         O22   1.769       .  S
Cr21         O22   1.752       .  S
O23         Cr41   1.972       .  S
O23          C31   1.258       .  A
O24         Cr41   2.041   1_545  S
O24          C25   1.274       .  A
C25          O26   1.261   1_545  A
C25        C1566   1.501       .  S
O26         Cr42   1.982       .  S
O27         Cr42   2.026       .  S
O27          C28   1.266       .  A
C28          O29   1.245       .  A
C28        C1596   1.459       .  S
O29         Cr43   1.941       .  S
O30         Cr43   2.009       .  S
O30          C31   1.264       .  A
C31        C1576   1.478       .  S
O32         Cr41   2.052       .  S
O32          C40   1.277       .  A
O33         Cr41   1.966   1_545  S
O33          C34   1.263       .  A
C34          O35   1.272       .  A
C34        C1556   1.479       .  S
O35         Cr42   2.015   1_545  S
O36         Cr42   1.986       .  S
O36          C37   1.264       .  A
C37          O38   1.272       .  A
C37        C1586   1.499       .  S
O38         Cr43   2.030       .  S
O39         Cr43   1.955       .  S
O39          C40   1.256       .  A
C40        C1649   1.486       .  S
Cr41         O44   1.766       .  S
Cr42         O44   1.773       .  S
Cr43         O44   1.757       .  S
O45         Cr63   1.999   1_556  S
O45          C53   1.268       .  A
O46         Cr63   2.011   1_556  S
O46          C47   1.264   1_565  A
C47          O48   1.257   1_545  A
C47        C1516   1.490       .  S
O48         Cr64   1.980   1_556  S
O49         Cr64   2.012       .  S
O49          C50   1.257       .  A
C50          O51   1.244       .  A
C50        C1546   1.450   1_554  S
O51         Cr65   1.945       .  S
O52         Cr65   1.975   1_556  S
O52          C53   1.265       .  A
C53        C1639   1.474       .  S
O54         Cr63   2.018       .  S
O54          C62   1.265       .  A
O55         Cr63   1.988   1_545  S
O55          C56   1.266       .  A
C56          O57   1.266   1_545  A
C56        C1506   1.476       .  S
O57         Cr64   1.980       .  S
O58         Cr64   2.012       .  S
O58          C59   1.271       .  A
C59          O60   1.270       .  A
C59        C1536   1.485       .  S
O60         Cr65   1.991       .  S
O61         Cr65   1.953       .  S
O61          C62   1.249       .  A
C62        C1526   1.486       .  S
Cr63         O66   1.787       .  S
Cr64         O66   1.782       .  S
Cr65         O66   1.781       .  S
O67         Cr85   1.973   1_556  S
O67          C75   1.258       .  A
O68         Cr85   2.041   1_556  S
O68          C69   1.274       .  A
C69          O70   1.260       .  A
C69        C1496   1.493       .  S
O70         Cr86   1.972   1_556  S
O71         Cr86   2.020       .  S
O71          C72   1.265   1_554  A
C72          O73   1.245       .  A
C72        C1489   1.461       .  S
O73         Cr87   1.942   1_556  S
O74         Cr87   2.007   1_556  S
O74          C75   1.264       .  A
C75        C1579   1.480       .  S
O76         Cr85   2.046       .  S
O76          C84   1.277       .  A
O77         Cr85   1.967       .  S
O77          C78   1.262       .  A
C78          O79   1.270       .  A
C78        C1466   1.479       .  S
O79         Cr86   2.014       .  S
O80         Cr86   1.976       .  S
O80          C81   1.263       .  A
C81          O82   1.272       .  A
C81        C1476   1.490       .  S
O82         Cr87   2.028       .  S
O83         Cr87   1.949       .  S
O83          C84   1.255       .  A
C84        C1529   1.478       .  S
Cr85         O88   1.762       .  S
Cr86         O88   1.770       .  S
Cr87         O88   1.756       .  S
O89        Cr107   2.040       .  S
O89          C97   1.274       .  A
O90        Cr107   1.962       .  S
O90          C91   1.261       .  A
C91          O92   1.271       .  A
C91        C1426   1.476       .  S
O92        Cr108   2.012       .  S
O93        Cr108   1.979       .  S
O93          C94   1.262       .  A
C94          O95   1.272       .  A
C94        C1499   1.495       .  S
O95        Cr109   2.032       .  S
O96        Cr109   1.950       .  S
O96          C97   1.253       .  A
C97        C1446   1.477       .  S
O98        Cr107   1.978       .  S
O98         C106   1.260       .  A
O99        Cr107   2.032       .  S
O99         C100   1.271       .  A
C100        O101   1.261       .  A
C100       C1456   1.488       .  S
O101       Cr108   1.971       .  S
O102       Cr108   2.024       .  S
O102        C103   1.267       .  A
C103        O104   1.246       .  A
C103       C1599   1.459       .  S
O104       Cr109   1.943       .  S
O105       Cr109   2.013       .  S
O105        C106   1.267       .  A
C106       C1436   1.482       .  S
Cr107       O110   1.765       .  S
Cr108       O110   1.767       .  S
Cr109       O110   1.752       .  S
O111       Cr129   2.046       .  S
O111        C119   1.276       .  A
O112       Cr129   1.964       .  S
O112        C113   1.262       .  A
C113        O114   1.270       .  A
C113       C1376   1.476       .  S
O114       Cr130   2.009       .  S
O115       Cr130   1.987       .  S
O115        C116   1.264       .  A
C116        O117   1.270       .  A
C116       C1409   1.495       .  S
O117       Cr131   2.024       .  S
O118       Cr131   1.947       .  S
O118        C119   1.252       .  A
C119       C1449   1.478       .  S
O120       Cr129   1.974       .  S
O120        C128   1.259       .  A
O121       Cr129   2.040       .  S
O121        C122   1.274       .  A
C122        O123   1.262       .  A
C122       C1419   1.497       .  S
O123       Cr130   1.980       .  S
O124       Cr130   2.021       .  S
O124        C125   1.266       .  A
C125        O126   1.245       .  A
C125       C1399   1.455       .  S
O126       Cr131   1.940       .  S
O127       Cr131   2.011       .  S
O127        C128   1.265       .  A
C128       C1386   1.478       .  S
Cr129       O132   1.765       .  S
Cr130       O132   1.768       .  S
Cr131       O132   1.752       .  S
O133       Cr151   2.042       .  S
O133        C141   1.276       .  A
O134       Cr151   1.964       .  S
O134        C135   1.261       .  A
C135        O136   1.273       .  A
C135       C1336   1.483       .  S
O136       Cr152   2.020       .  S
O137       Cr152   1.986       .  S
O137        C138   1.265       .  A
C138        O139   1.273       .  A
C138       C1359   1.500       .  S
O139       Cr153   2.034       .  S
O140       Cr153   1.955       .  S
O140        C141   1.257       .  A
C141       C1349   1.481       .  S
O142       Cr151   1.976       .  S
O142        C150   1.259       .  A
O143       Cr151   2.040       .  S
O143        C144   1.273       .  A
C144        O145   1.260       .  A
C144       C1589   1.495       .  S
O145       Cr152   1.978       .  S
O146       Cr152   2.023       .  S
O146        C147   1.266       .  A
C147        O148   1.244       .  A
C147       C1369   1.457       .  S
O148       Cr153   1.942       .  S
O149       Cr153   2.011       .  S
O149        C150   1.264       .  A
C150       C1439   1.484       .  S
Cr151       O154   1.763       .  S
Cr152       O154   1.771       .  S
Cr153       O154   1.757       .  S
O155       Cr173   2.039       .  S
O155        C163   1.276       .  A
O156       Cr173   1.963       .  S
O156        C157   1.261       .  A
C157        O158   1.272       .  A
C157       C1296   1.480       .  S
O158       Cr174   2.019       .  S
O159       Cr174   1.980       .  S
O159        C160   1.263       .  A
C160        O161   1.274       .  A
C160       C1319   1.496       .  S
O161       Cr175   2.035       .  S
O162       Cr175   1.956       .  S
O162        C163   1.257       .  A
C163       C1346   1.482       .  S
O164       Cr173   1.974       .  S
O164        C172   1.258       .  A
O165       Cr173   2.034       .  S
O165        C166   1.271       .  A
C166        O167   1.259       .  A
C166       C1306   1.486       .  S
O167       Cr174   1.973       .  S
O168       Cr174   2.022       .  S
O168        C169   1.266       .  A
C169        O170   1.246       .  A
C169       C1326   1.463       .  S
O170       Cr175   1.945       .  S
O171       Cr175   2.013       .  S
O171        C172   1.266       .  A
C172       C1389   1.485       .  S
Cr173       O176   1.763       .  S
Cr174       O176   1.770       .  S
Cr175       O176   1.757       .  S
O177       Cr195   2.046       .  S
O177        C185   1.277       .  A
O178       Cr195   1.967       .  S
O178        C179   1.264       .  A
C179        O180   1.273       .  A
C179       C1256   1.485       .  S
O180       Cr196   2.029       .  S
O181       Cr196   1.983       .  S
O181        C182   1.266       .  A
C182        O183   1.272       .  A
C182       C1519   1.491       .  S
O183       Cr197   2.031       .  S
O184       Cr197   1.960       .  S
O184        C185   1.258       .  A
C185       C1279   1.490       .  S
O186       Cr195   1.979       .  S
O186        C194   1.260       .  A
O187       Cr195   2.038       .  S
O187        C188   1.271       .  A
C188        O189   1.258       .  A
C188       C1289   1.487       .  S
O189       Cr196   1.972       .  S
O190       Cr196   2.021       .  S
O190        C191   1.265       .  A
C191        O192   1.244       .  A
C191       C1629   1.455       .  S
O192       Cr197   1.945       .  S
O193       Cr197   2.008       .  S
O193        C194   1.264       .  A
C194       C1266   1.481       .  S
Cr195       O198   1.765       .  S
Cr196       O198   1.776       .  S
Cr197       O198   1.758       .  S
O199       Cr217   2.054       .  S
O199        C207   1.277       .  A
O200       Cr217   1.966   1_565  S
O200        C201   1.263       .  A
C201        O202   1.271       .  A
C201       C1206   1.481       .  S
O202       Cr218   2.016   1_565  S
O203       Cr218   1.982       .  S
O203        C204   1.263       .  A
C204        O205   1.271       .  A
C204       C1226   1.495       .  S
O205       Cr219   2.028       .  S
O206       Cr219   1.955       .  S
O206        C207   1.255       .  A
C207       C1276   1.487       .  S
O208       Cr217   1.977       .  S
O208        C216   1.260       .  A
O209       Cr217   2.044   1_565  S
O209        C210   1.274       .  A
C210        O211   1.262   1_565  A
C210       C1246   1.502       .  S
O211       Cr218   1.981       .  S
O212       Cr218   2.020       .  S
O212        C213   1.266       .  A
C213        O214   1.246       .  A
C213       C1216   1.462       .  S
O214       Cr219   1.940       .  S
O215       Cr219   2.010       .  S
O215        C216   1.265       .  A
C216       C1239   1.481       .  S
Cr217       O220   1.765       .  S
Cr218       O220   1.773       .  S
Cr219       O220   1.758       .  S
O221       Cr239   2.042       .  S
O221        C229   1.275       .  A
O222       Cr239   1.965   1_565  S
O222        C223   1.262       .  A
C223        O224   1.272       .  A
C223       C1166   1.480       .  S
O224       Cr240   2.017   1_565  S
O225       Cr240   1.978       .  S
O225        C226   1.264       .  A
C226        O227   1.274       .  A
C226       C1189   1.494       .  S
O227       Cr241   2.037       .  S
O228       Cr241   1.946       .  S
O228        C229   1.254       .  A
C229       C1179   1.473       .  S
O230       Cr239   1.976       .  S
O230        C238   1.259       .  A
O231       Cr239   2.030   1_565  S
O231        C232   1.272       .  A
C232        O233   1.259   1_565  A
C232       C1616   1.485       .  S
O233       Cr240   1.969       .  S
O234       Cr240   2.022       .  S
O234        C235   1.265       .  A
C235        O236   1.243       .  A
C235       C1196   1.462       .  S
O236       Cr241   1.938       .  S
O237       Cr241   2.015       .  S
O237        C238   1.266       .  A
C238       C1269   1.485       .  S
Cr239       O242   1.762       .  S
Cr240       O242   1.770       .  S
Cr241       O242   1.750       .  S
O243       Cr261   2.038       .  S
O243        C251   1.275       .  A
O244       Cr261   1.972       .  S
O244        C245   1.265       .  A
C245        O246   1.269       .  A
C245       C1126   1.480       .  S
O246       Cr262   2.008       .  S
O247       Cr262   1.980       .  S
O247        C248   1.263       .  A
C248        O249   1.273       .  A
C248       C1149   1.495       .  S
O249       Cr263   2.030       .  S
O250       Cr263   1.950       .  S
O250        C251   1.255       .  A
C251       C1176   1.481       .  S
O252       Cr261   1.977       .  S
O252        C260   1.260       .  A
O253       Cr261   2.029       .  S
O253        C254   1.271       .  A
C254        O255   1.260       .  A
C254       C1136   1.485       .  S
O255       Cr262   1.971       .  S
O256       Cr262   2.022       .  S
O256        C257   1.266       .  A
C257        O258   1.245       .  A
C257       C1156   1.468       .  S
O258       Cr263   1.940       .  S
O259       Cr263   2.014       .  S
O259        C260   1.266       .  A
C260       C1236   1.485       .  S
Cr261       O264   1.765       .  S
Cr262       O264   1.769       .  S
Cr263       O264   1.753       .  S
O265       Cr283   2.041       .  S
O265        C273   1.276       .  A
O266       Cr283   1.974       .  S
O266        C267   1.264       .  A
C267        O268   1.269       .  A
C267       C1169   1.481       .  S
O268       Cr284   2.006       .  S
O269       Cr284   1.977       .  S
O269        C270   1.262       .  A
C270        O271   1.271       .  A
C270       C1109   1.490       .  S
O271       Cr285   2.030       .  S
O272       Cr285   1.952       .  S
O272        C273   1.256       .  A
C273       C1099   1.482       .  S
O274       Cr283   1.983       .  S
O274        C282   1.260       .  A
O275       Cr283   2.032       .  S
O275        C276   1.273       .  A
C276        O277   1.259       .  A
C276       C1539   1.490       .  S
O277       Cr284   1.972       .  S
O278       Cr284   2.017       .  S
O278        C279   1.264       .  A
C279        O280   1.246       .  A
C279       C1116   1.457       .  S
O280       Cr285   1.939       .  S
O281       Cr285   2.013       .  S
O281        C282   1.265       .  A
C282       C1089   1.487       .  S
Cr283       O286   1.763       .  S
Cr284       O286   1.771       .  S
Cr285       O286   1.756       .  S
O287       Cr305   2.039       .  S
O287        C295   1.274       .  A
O288       Cr305   1.958       .  S
O288        C289   1.260       .  A
C289        O290   1.273       .  A
C289       C1129   1.479       .  S
O290       Cr306   2.021       .  S
O291       Cr306   1.983       .  S
O291        C292   1.264       .  A
C292        O293   1.270       .  A
C292       C1056   1.490       .  S
O293       Cr307   2.022       .  S
O294       Cr307   1.951       .  S
O294        C295   1.255       .  A
C295       C1096   1.475       .  S
O296       Cr305   1.973       .  S
O296        C304   1.259       .  A
O297       Cr305   2.033       .  S
O297        C298   1.272       .  A
C298        O299   1.261       .  A
C298       C1069   1.495       .  S
O299       Cr306   1.980       .  S
O300       Cr306   2.027       .  S
O300        C301   1.267       .  A
C301        O302   1.246       .  A
C301       C1046   1.460       .  S
O302       Cr307   1.943       .  S
O303       Cr307   2.006       .  S
O303        C304   1.264       .  A
C304       C1079   1.477       .  S
Cr305       O308   1.763       .  S
Cr306       O308   1.771       .  S
Cr307       O308   1.754       .  S
O309       Cr327   2.051       .  S
O309        C317   1.277       .  A
O310       Cr327   1.966       .  S
O310        C311   1.264       .  A
C311        O312   1.275       .  A
C311       C1259   1.485       .  S
O312       Cr328   2.029       .  S
O313       Cr328   1.973       .  S
O313        C314   1.261       .  A
C314        O315   1.275       .  A
C314       C1659   1.494       .  S
O315       Cr329   2.042       .  S
O316       Cr329   1.947       .  S
O316        C317   1.253       .  A
C317       C1029   1.485       .  S
O318       Cr327   1.975   1_554  S
O318        C326   1.259       .  A
O319       Cr327   2.035       .  S
O319        C320   1.273   1_556  A
C320        O321   1.266       .  A
C320       C1036   1.502       .  S
O321       Cr328   1.992   1_554  S
O322       Cr328   2.056       .  S
O322        C323   1.269       .  A
C323        O324   1.238       .  A
C323       C1549   1.478       .  S
O324       Cr329   1.931       .  S
O325       Cr329   2.018   1_554  S
O325        C326   1.267       .  A
C326       C1086   1.487       .  S
Cr327       O330   1.759       .  S
Cr328       O330   1.773       .  S
Cr329       O330   1.750       .  S
O331       Cr349   2.047       .  S
O331        C339   1.276       .  A
O332       Cr349   1.965       .  S
O332        C333   1.263       .  A
C333        O334   1.271       .  A
C333       C1209   1.481       .  S
O334       Cr350   2.018       .  S
O335       Cr350   1.983       .  S
O335        C336   1.264       .  A
C336        O337   1.270       .  A
C336       C1019   1.490       .  S
O337       Cr351   2.019       .  S
O338       Cr351   1.950       .  S
O338        C339   1.254       .  A
C339       C1026   1.479       .  S
O340       Cr349   1.972   1_554  S
O340        C348   1.258       .  A
O341       Cr349   2.039   1_554  S
O341        C342   1.274       .  A
C342        O343   1.261       .  A
C342        C996   1.496       .  S
O343       Cr350   1.976   1_554  S
O344       Cr350   2.022       .  S
O344        C345   1.267       .  A
C345        O346   1.246   1_556  A
C345       C1006   1.465       .  S
O346       Cr351   1.944   1_554  S
O347       Cr351   2.005   1_554  S
O347        C348   1.263       .  A
C348       C1076   1.477       .  S
Cr349       O352   1.763       .  S
Cr350       O352   1.769       .  S
Cr351       O352   1.756       .  S
O353       Cr371   1.978       .  S
O353        C361   1.259       .  A
O354       Cr371   2.041       .  S
O354        C355   1.274       .  A
C355        O356   1.259       .  A
C355       C1316   1.492       .  S
O356       Cr372   1.972       .  S
O357       Cr372   2.017       .  S
O357        C358   1.264       .  A
C358        O359   1.243       .  A
C358        C956   1.460       .  S
O359       Cr373   1.940       .  S
O360       Cr373   2.010       .  S
O360        C361   1.264       .  A
C361        C976   1.484       .  S
O362       Cr371   2.050       .  S
O362        C370   1.278       .  A
O363       Cr371   1.974       .  S
O363        C364   1.264       .  A
C364        O365   1.271       .  A
C364        C946   1.484       .  S
O365       Cr372   2.013       .  S
O366       Cr372   1.979       .  S
O366        C367   1.264       .  A
C367        O368   1.273       .  A
C367        C966   1.491       .  S
O368       Cr373   2.033       .  S
O369       Cr373   1.952       .  S
O369        C370   1.256       .  A
C370        C986   1.486       .  S
Cr371       O374   1.762       .  S
Cr372       O374   1.772       .  S
Cr373       O374   1.756       .  S
O375       Cr393   1.982       .  S
O375        C383   1.260       .  A
O376       Cr393   2.041   1_545  S
O376        C377   1.273       .  A
C377        O378   1.260   1_545  A
C377       C1146   1.494       .  S
O378       Cr394   1.973       .  S
O379       Cr394   2.024       .  S
O379        C380   1.266       .  A
C380        O381   1.245       .  A
C380       C1049   1.459       .  S
O381       Cr395   1.946       .  S
O382       Cr395   2.008       .  S
O382        C383   1.265       .  A
C383        C936   1.482       .  S
O384       Cr393   2.049       .  S
O384        C392   1.277       .  A
O385       Cr393   1.968   1_545  S
O385        C386   1.263       .  A
C386        O387   1.271       .  A
C386        C929   1.479       .  S
O387       Cr394   2.021   1_545  S
O388       Cr394   1.984       .  S
O388        C389   1.264       .  A
C389        O390   1.272       .  A
C389        C999   1.497       .  S
O390       Cr395   2.031       .  S
O391       Cr395   1.955       .  S
O391        C392   1.256       .  A
C392        C989   1.487       .  S
Cr393       O396   1.765       .  S
Cr394       O396   1.772       .  S
Cr395       O396   1.755       .  S
O397       Cr415   1.974       .  S
O397        C405   1.259       .  A
O398       Cr415   2.036   1_545  S
O398        C399   1.273       .  A
C399        O400   1.262   1_545  A
C399        C906   1.498       .  S
O400       Cr416   1.981       .  S
O401       Cr416   2.030       .  S
O401        C402   1.267       .  A
C402        O403   1.244       .  A
C402       C1329   1.463       .  S
O403       Cr417   1.937       .  S
O404       Cr417   2.016       .  S
O404        C405   1.266       .  A
C405        C979   1.484       .  S
O406       Cr415   2.043       .  S
O406        C414   1.275       .  A
O407       Cr415   1.959   1_545  S
O407        C408   1.260       .  A
C408        O409   1.272       .  A
C408        C896   1.477       .  S
O409       Cr416   2.017   1_545  S
O410       Cr416   1.984       .  S
O410        C411   1.263       .  A
C411        O412   1.273       .  A
C411       C1416   1.498       .  S
O412       Cr417   2.035       .  S
O413       Cr417   1.948       .  S
O413        C414   1.254       .  A
C414        C916   1.477       .  S
Cr415       O418   1.763       .  S
Cr416       O418   1.771       .  S
Cr417       O418   1.752       .  S
O419       Cr437   1.973       .  S
O419        C427   1.259       .  A
O420       Cr437   2.026       .  S
O420        C421   1.269       .  A
C421        O422   1.262       .  A
C421       C1059   1.495       .  S
O422       Cr438   1.984       .  S
O423       Cr438   2.028       .  S
O423        C424   1.269       .  A
C424        O425   1.244       .  A
C424       C1159   1.468       .  S
O425       Cr439   1.937       .  S
O426       Cr439   2.017       .  S
O426        C427   1.267       .  A
C427        C939   1.484       .  S
O428       Cr437   2.038       .  S
O428        C436   1.273       .  A
O429       Cr437   1.963       .  S
O429        C430   1.264       .  A
C430        O431   1.274       .  A
C430        C886   1.483       .  S
O431       Cr438   2.027       .  S
O432       Cr438   1.986       .  S
O432        C433   1.264       .  A
C433        O434   1.272       .  A
C433       C1249   1.500       .  S
O434       Cr439   2.033       .  S
O435       Cr439   1.951       .  S
O435        C436   1.254       .  A
C436        C919   1.476       .  S
Cr437       O440   1.766       .  S
Cr438       O440   1.769       .  S
Cr439       O440   1.759       .  S
O441       Cr459   1.978       .  S
O441        C449   1.259       .  A
O442       Cr459   2.033       .  S
O442        C443   1.272       .  A
C443        O444   1.261       .  A
C443       C1186   1.497       .  S
O444       Cr460   1.981       .  S
O445       Cr460   2.017       .  S
O445        C446   1.266       .  A
C446        O447   1.245       .  A
C446       C1119   1.456       .  S
O447       Cr461   1.937       .  S
O448       Cr461   2.014       .  S
O448        C449   1.266       .  A
C449        C866   1.485       .  S
O450       Cr459   2.043       .  S
O450        C458   1.275       .  A
O451       Cr459   1.968       .  S
O451        C452   1.264       .  A
C452        O453   1.272       .  A
C452       C1509   1.482       .  S
O453       Cr460   2.017       .  S
O454       Cr460   1.991       .  S
O454        C455   1.267       .  A
C455        O456   1.271       .  A
C455       C1039   1.501       .  S
O456       Cr461   2.031       .  S
O457       Cr461   1.952       .  S
O457        C458   1.255       .  A
C458        C876   1.482       .  S
Cr459       O462   1.765       .  S
Cr460       O462   1.771       .  S
Cr461       O462   1.756       .  S
O463       Cr481   1.973       .  S
O463        C471   1.258       .  A
O464       Cr481   2.042       .  S
O464        C465   1.274       .  A
C465        O466   1.262       .  A
C465       C1356   1.496       .  S
O466       Cr482   1.979       .  S
O467       Cr482   2.021       .  S
O467        C468   1.266       .  A
C468        O469   1.246       .  A
C468        C849   1.462       .  S
O469       Cr483   1.943       .  S
O470       Cr483   2.008       .  S
O470        C471   1.264       .  A
C471        C836   1.479       .  S
O472       Cr481   2.050       .  S
O472        C480   1.277       .  A
O473       Cr481   1.967       .  S
O473        C474   1.262       .  A
C474        O475   1.271       .  A
C474       C1469   1.479       .  S
O475       Cr482   2.014       .  S
O476       Cr482   1.987       .  S
O476        C477   1.265       .  A
C477        O478   1.270       .  A
C477        C859   1.495       .  S
O478       Cr483   2.025       .  S
O479       Cr483   1.948       .  S
O479        C480   1.253       .  A
C480        C879   1.481       .  S
Cr481       O484   1.765       .  S
Cr482       O484   1.768       .  S
Cr483       O484   1.754       .  S
O485       Cr503   1.982       .  S
O485        C493   1.259       .  A
O486       Cr503   2.037       .  S
O486        C487   1.273       .  A
C487        O488   1.258       .  A
C487       C1106   1.489       .  S
O488       Cr504   1.965       .  S
O489       Cr504   2.014       .  S
O489        C490   1.265       .  A
C490        O491   1.247       .  A
C490       C1199   1.461       .  S
O491       Cr505   1.943       .  S
O492       Cr505   2.010       .  S
O492        C493   1.264       .  A
C493        C869   1.485       .  S
O494       Cr503   2.049       .  S
O494        C502   1.277       .  A
O495       Cr503   1.972       .  S
O495        C496   1.263       .  A
C496        O497   1.269       .  A
C496       C1606   1.481       .  S
O497       Cr504   2.009       .  S
O498       Cr504   1.984       .  S
O498        C499   1.264       .  A
C499        O500   1.270       .  A
C499       C1286   1.494       .  S
O500       Cr505   2.025       .  S
O501       Cr505   1.947       .  S
O501        C502   1.254       .  A
C502        C829   1.478       .  S
Cr503       O506   1.765       .  S
Cr504       O506   1.768       .  S
Cr505       O506   1.754       .  S
O507       Cr525   1.974       .  S
O507        C515   1.259       .  A
O508       Cr525   2.029       .  S
O508        C509   1.272       .  A
C509        O510   1.262       .  A
C509        C816   1.494       .  S
O510       Cr526   1.982       .  S
O511       Cr526   2.025       .  S
O511        C512   1.265       .  A
C512        O513   1.245       .  A
C512       C1366   1.457       .  S
O513       Cr527   1.940       .  S
O514       Cr527   2.007       .  S
O514        C515   1.264       .  A
C515        C839   1.480       .  S
O516       Cr525   2.038       .  S
O516        C524   1.275       .  A
O517       Cr525   1.969       .  S
O517        C518   1.263       .  A
C518        O519   1.270       .  A
C518       C1559   1.478       .  S
O519       Cr526   2.012       .  S
O520       Cr526   1.981       .  S
O520        C521   1.263       .  A
C521        O522   1.270       .  A
C521       C1459   1.487       .  S
O522       Cr527   2.019       .  S
O523       Cr527   1.952       .  S
O523        C524   1.254       .  A
C524        C826   1.481       .  S
Cr525       O528   1.759       .  S
Cr526       O528   1.771       .  S
Cr527       O528   1.753       .  S
O529       Cr547   2.045       .  S
O529        C537   1.275       .  A
O530       Cr547   1.971   1_565  S
O530        C531   1.264       .  A
C531        O532   1.271       .  A
C531       C1339   1.484       .  S
O532       Cr548   2.016   1_565  S
O533       Cr548   1.983       .  S
O533        C534   1.266       .  A
C534        O535   1.271       .  A
C534        C819   1.491       .  S
O535       Cr549   2.026       .  S
O536       Cr549   1.945       .  S
O536        C537   1.252       .  A
C537        C809   1.473       .  S
O538       Cr547   1.973       .  S
O538        C546   1.258       .  A
O539       Cr547   2.032   1_565  S
O539        C540   1.272       .  A
C540        O541   1.260   1_565  A
C540       C1479   1.487       .  S
O541       Cr548   1.972       .  S
O542       Cr548   2.019       .  S
O542        C543   1.265       .  A
C543        O544   1.246       .  A
C543        C846   1.462       .  S
O544       Cr549   1.943       .  S
O545       Cr549   2.012       .  S
O545        C546   1.265       .  A
C546        C796   1.484       .  S
Cr547       O550   1.765       .  S
Cr548       O550   1.768       .  S
Cr549       O550   1.754       .  S
O551       Cr569   2.040       .  S
O551        C559   1.276       .  A
O552       Cr569   1.969       .  S
O552        C553   1.264       .  A
C553        O554   1.271       .  A
C553       C1299   1.479       .  S
O554       Cr570   2.016       .  S
O555       Cr570   1.987       .  S
O555        C556   1.265       .  A
C556        O557   1.271       .  A
C556        C909   1.494       .  S
O557       Cr571   2.027       .  S
O558       Cr571   1.950       .  S
O558        C559   1.254       .  A
C559        C806   1.482       .  S
O560       Cr569   1.975       .  S
O560        C568   1.259       .  A
O561       Cr569   2.030       .  S
O561        C562   1.272       .  A
C562        O563   1.260       .  A
C562        C776   1.491       .  S
O563       Cr570   1.980       .  S
O564       Cr570   2.018       .  S
O564        C565   1.265       .  A
C565        O566   1.244       .  A
C565        C959   1.459       .  S
O566       Cr571   1.937       .  S
O567       Cr571   2.010       .  S
O567        C568   1.264       .  A
C568        C789   1.480       .  S
Cr569       O572   1.763       .  S
Cr570       O572   1.770       .  S
Cr571       O572   1.754       .  S
O573       Cr591   2.045       .  S
O573        C581   1.275       .  A
O574       Cr591   1.962       .  S
O574        C575   1.263       .  A
C575        O576   1.271       .  A
C575       C1429   1.476       .  S
O576       Cr592   2.013       .  S
O577       Cr592   1.985       .  S
O577        C578   1.264       .  A
C578        O579   1.272       .  A
C578       C1569   1.499       .  S
O579       Cr593   2.032       .  S
O580       Cr593   1.954       .  S
O580        C581   1.256       .  A
C581        C766   1.482       .  S
O582       Cr591   1.976   1_554  S
O582        C590   1.260       .  A
O583       Cr591   2.035   1_554  S
O583        C584   1.271       .  A
C584        O585   1.261       .  A
C584        C856   1.491       .  S
O585       Cr592   1.979   1_554  S
O586       Cr592   2.018       .  S
O586        C587   1.266       .  A
C587        O588   1.246       .  A
C587       C1486   1.459       .  S
O588       Cr593   1.939       .  S
O589       Cr593   2.010   1_554  S
O589        C590   1.266       .  A
C590        C799   1.476       .  S
Cr591       O594   1.767       .  S
Cr592       O594   1.770       .  S
Cr593       O594   1.755       .  S
O595       Cr613   2.046       .  S
O595        C603   1.276       .  A
O596       Cr613   1.965   1_565  S
O596        C597   1.262       .  A
C597        O598   1.270       .  A
C597       C1379   1.477       .  S
O598       Cr614   2.010   1_565  S
O599       Cr614   1.982       .  S
O599        C600   1.264       .  A
C600        O601   1.272       .  A
C600        C756   1.493       .  S
O601       Cr615   2.025       .  S
O602       Cr615   1.953       .  S
O602        C603   1.256       .  A
C603        C769   1.483       .  S
O604       Cr613   1.976   1_554  S
O604        C612   1.259       .  A
O605       Cr613   2.035   1_565  S
O605        C606   1.273   1_556  A
C606        O607   1.261   1_564  A
C606        C969   1.494       .  S
O607       Cr614   1.975       .  S
O608       Cr614   2.022       .  S
O608        C609   1.265       .  A
C609        O610   1.246       .  A
C609        C746   1.459       .  S
O610       Cr615   1.944       .  S
O611       Cr615   2.007   1_554  S
O611        C612   1.264       .  A
C612        C786   1.482       .  S
Cr613       O616   1.763       .  S
Cr614       O616   1.772       .  S
Cr615       O616   1.753       .  S
O617       Cr635   1.974       .  S
O617        C625   1.259       .  A
O618       Cr635   2.033       .  S
O618        C619   1.272       .  A
C619        O620   1.260       .  A
C619        C759   1.488       .  S
O620       Cr636   1.975       .  S
O621       Cr636   2.014       .  S
O621        C622   1.264       .  A
C622        O623   1.248       .  A
C622       C1396   1.455       .  S
O623       Cr637   1.948       .  S
O624       Cr637   2.008       .  S
O624        C625   1.265       .  A
C625        C726   1.480       .  S
O626       Cr635   2.042       .  S
O626        C634   1.275       .  A
O627       Cr635   1.968       .  S
O627        C628   1.263       .  A
C628        O629   1.269       .  A
C628        C899   1.477       .  S
O629       Cr636   2.007       .  S
O630       Cr636   1.985       .  S
O630        C631   1.264       .  A
C631        O632   1.271       .  A
C631       C1309   1.493       .  S
O632       Cr637   2.020       .  S
O633       Cr637   1.955       .  S
O633        C634   1.255       .  A
C634        C736   1.482       .  S
Cr635       O638   1.765       .  S
Cr636       O638   1.769       .  S
Cr637       O638   1.756       .  S
O639       Cr657   1.985       .  S
O639        C647   1.261       .  A
O640       Cr657   2.034       .  S
O640        C641   1.272       .  A
C641        O642   1.259       .  A
C641       C1016   1.483       .  S
O642       Cr658   1.967       .  S
O643       Cr658   2.015       .  S
O643        C644   1.264       .  A
C644        O645   1.247       .  A
C644       C1219   1.462       .  S
O645       Cr659   1.946       .  S
O646       Cr659   2.009       .  S
O646        C647   1.265       .  A
C647        C716   1.487       .  S
O648       Cr657   2.043       .  S
O648        C656   1.276       .  A
O649       Cr657   1.977       .  S
O649        C650   1.264       .  A
C650        O651   1.269       .  A
C650        C889   1.484       .  S
O651       Cr658   2.014       .  S
O652       Cr658   1.978       .  S
O652        C653   1.263       .  A
C653        O654   1.271       .  A
C653       C1139   1.488       .  S
O654       Cr659   2.021       .  S
O655       Cr659   1.952       .  S
O655        C656   1.255       .  A
C656        C739   1.482       .  S
Cr657       O660   1.762       .  S
Cr658       O660   1.771       .  S
Cr659       O660   1.756       .  S
O661       Cr679   1.976   1_556  S
O661        C669   1.259       .  A
O662       Cr679   2.041   1_556  S
O662        C663   1.274       .  A
C663        O664   1.261       .  A
C663       C1406   1.493       .  S
O664       Cr680   1.973   1_556  S
O665       Cr680   2.030       .  S
O665        C666   1.269   1_554  A
C666        O667   1.245       .  A
C666        C749   1.461       .  S
O667       Cr681   1.942   1_556  S
O668       Cr681   2.010   1_556  S
O668        C669   1.265       .  A
C669        C729   1.481       .  S
O670       Cr679   2.050       .  S
O670        C678   1.277       .  A
O671       Cr679   1.963       .  S
O671        C672   1.262       .  A
C672        O673   1.273       .  A
C672        C949   1.484       .  S
O673       Cr680   2.025       .  S
O674       Cr680   1.980       .  S
O674        C675   1.263       .  A
C675        O676   1.271       .  A
C675        C779   1.493       .  S
O676       Cr681   2.030       .  S
O677       Cr681   1.946       .  S
O677        C678   1.253       .  A
C678        C706   1.477       .  S
Cr679       O682   1.764       .  S
Cr680       O682   1.766       .  S
Cr681       O682   1.754       .  S
O683       Cr701   1.976   1_556  S
O683        C691   1.260       .  A
O684       Cr701   2.036   1_556  S
O684        C685   1.273       .  A
C685        O686   1.260       .  A
C685       C1229   1.495       .  S
O686       Cr702   1.976   1_556  S
O687       Cr702   2.024       .  S
O687        C688   1.268   1_554  A
C688        O689   1.245       .  A
C688       C1009   1.465       .  S
O689       Cr703   1.939   1_556  S
O690       Cr703   2.017   1_556  S
O690        C691   1.267       .  A
C691        C719   1.485       .  S
O692       Cr701   2.046       .  S
O692        C700   1.276       .  A
O693       Cr701   1.966       .  S
O693        C694   1.263       .  A
C694        O695   1.272       .  A
C694        C926   1.480       .  S
O695       Cr702   2.020       .  S
O696       Cr702   1.981       .  S
O696        C697   1.263       .  A
C697        O698   1.271       .  A
C697       C1066   1.494       .  S
O698       Cr703   2.028       .  S
O699       Cr703   1.949       .  S
O699        C700   1.253       .  A
C700        C709   1.481       .  S
Cr701       O704   1.765       .  S
Cr702       O704   1.769       .  S
Cr703       O704   1.757       .  S
C705        C706   1.410       .  A
C705        C710   1.398       .  A
C705        H712   1.083       .  S
C706        C707   1.399       .  A
C707        C708   1.400       .  A
C707        F714   1.357       .  S
C708        C709   1.413       .  A
C708        H713   1.083       .  S
C709        C710   1.401       .  A
C710        F711   1.357       .  S
C715        C716   1.407       .  A
C715        C720   1.399       .  A
C715        H722   1.083       .  S
C716        C717   1.409       .  A
C717        C718   1.401       .  A
C717        F724   1.357       .  S
C718        C719   1.406       .  A
C718        H723   1.083       .  S
C719        C720   1.408       .  A
C720        F721   1.358       .  S
C725        C726   1.406       .  A
C725        C730   1.398       .  A
C725        H732   1.083       .  S
C726        C727   1.407       .  A
C727        C728   1.397       .  A
C727        F734   1.357       .  S
C728        C729   1.406       .  A
C728        H733   1.083       .  S
C729        C730   1.408       .  A
C730        F731   1.358       .  S
C735        C736   1.400       .  A
C735        C740   1.401       .  A
C735        H742   1.083       .  S
C736        C737   1.414       .  A
C737        C738   1.399       .  A
C737        F744   1.358       .  S
C738        C739   1.399       .  A
C738        H743   1.083       .  S
C739        C740   1.415       .  A
C740        F741   1.358       .  S
C745        C746   1.402       .  A
C745        C750   1.393       .  A
C745        H752   1.084       .  S
C746        C747   1.406   1_556  A
C747        C748   1.391       .  A
C747        F754   1.358       .  S
C748        C749   1.402   1_554  A
C748        H753   1.084       .  S
C749        C750   1.408       .  A
C750        F751   1.358       .  S
C755        C756   1.407       .  A
C755        C760   1.399       .  A
C755        H762   1.083       .  S
C756        C757   1.412       .  A
C757        C758   1.405       .  A
C757        F764   1.357       .  S
C758        C759   1.406       .  A
C758        H763   1.083       .  S
C759        C760   1.408       .  A
C760        F761   1.358       .  S
C765        C766   1.411       .  A
C765        C770   1.400       .  A
C765        H772   1.083       .  S
C766        C767   1.402       .  A
C767        C768   1.402       .  A
C767        F774   1.357       .  S
C768        C769   1.412       .  A
C768        H773   1.083       .  S
C769        C770   1.401       .  A
C770        F771   1.357       .  S
C775        C776   1.405       .  A
C775        C780   1.402       .  A
C775        H782   1.083       .  S
C776        C777   1.411       .  A
C777        C778   1.403       .  A
C777        F784   1.358       .  S
C778        C779   1.408       .  A
C778        H783   1.083       .  S
C779        C780   1.411       .  A
C780        F781   1.357       .  S
C785        C786   1.406       .  A
C785        C790   1.399       .  A
C785        H792   1.083       .  S
C786        C787   1.409       .  A
C787        C788   1.397       .  A
C787        F794   1.357       .  S
C788        C789   1.404       .  A
C788        H793   1.083       .  S
C789        C790   1.409       .  A
C790        F791   1.358       .  S
C795        C796   1.408       .  A
C795        C800   1.400       .  A
C795        H802   1.083       .  S
C796        C797   1.411       .  A
C797        C798   1.396       .  A
C797        F804   1.358       .  S
C798        C799   1.403       .  A
C798        H803   1.084       .  S
C799        C800   1.405       .  A
C800        F801   1.357       .  S
C805        C806   1.400       .  A
C805        C810   1.396       .  A
C805        H812   1.083       .  S
C806        C807   1.417       .  A
C807        C808   1.401       .  A
C807        F814   1.357       .  S
C808        C809   1.397       .  A
C808        H813   1.083       .  S
C809        C810   1.411       .  A
C810        F811   1.358       .  S
C815        C816   1.408   1_455  A
C815        C820   1.403       .  A
C815        H822   1.083       .  S
C816        C817   1.410       .  A
C817        C818   1.402       .  A
C817        F824   1.357       .  S
C818        C819   1.406   1_655  A
C818        H823   1.083       .  S
C819        C820   1.410       .  A
C820        F821   1.358       .  S
C825        C826   1.399       .  A
C825        C830   1.396       .  A
C825        H832   1.083       .  S
C826        C827   1.416       .  A
C827        C828   1.401       .  A
C827        F834   1.358       .  S
C828        C829   1.399       .  A
C828        H833   1.083       .  S
C829        C830   1.412       .  A
C830        F831   1.358       .  S
C835        C836   1.405       .  A
C835        C840   1.396       .  A
C835        H842   1.083       .  S
C836        C837   1.408       .  A
C837        C838   1.398       .  A
C837        F844   1.358       .  S
C838        C839   1.406       .  A
C838        H843   1.083       .  S
C839        C840   1.407       .  A
C840        F841   1.357       .  S
C845        C846   1.405       .  A
C845        C850   1.390       .  A
C845        H852   1.084       .  S
C846        C847   1.405   1_455  A
C847        C848   1.391       .  A
C847        F854   1.358       .  S
C848        C849   1.406       .  A
C848        H853   1.084       .  S
C849        C850   1.405   1_655  A
C850        F851   1.358       .  S
C855        C856   1.406   1_655  A
C855        C860   1.402       .  A
C855        H862   1.083       .  S
C856        C857   1.408       .  A
C857        C858   1.404   1_455  A
C857        F864   1.357       .  S
C858        C859   1.408       .  A
C858        H863   1.083       .  S
C859        C860   1.412       .  A
C860        F861   1.358       .  S
C865        C866   1.407       .  A
C865        C870   1.400       .  A
C865        H872   1.083       .  S
C866        C867   1.408       .  A
C867        C868   1.399       .  A
C867        F874   1.358       .  S
C868        C869   1.406       .  A
C868        H873   1.083       .  S
C869        C870   1.408       .  A
C870        F871   1.357       .  S
C875        C876   1.399       .  A
C875        C880   1.399       .  A
C875        H882   1.083       .  S
C876        C877   1.415       .  A
C877        C878   1.401       .  A
C877        F884   1.358       .  S
C878        C879   1.399       .  A
C878        H883   1.083       .  S
C879        C880   1.415       .  A
C880        F881   1.358       .  S
C885        C886   1.406       .  A
C885        C890   1.396       .  A
C885        H892   1.083       .  S
C886        C887   1.408       .  A
C887        C888   1.401       .  A
C887        F894   1.358       .  S
C888        C889   1.408       .  A
C888        H893   1.083       .  S
C889        C890   1.406       .  A
C890        F891   1.357       .  S
C895        C896   1.403       .  A
C895        C900   1.394       .  A
C895        H902   1.083       .  S
C896        C897   1.410       .  A
C897        C898   1.394       .  A
C897        F904   1.358       .  S
C898        C899   1.404       .  A
C898        H903   1.083       .  S
C899        C900   1.410       .  A
C900        F901   1.358       .  S
C905        C906   1.409       .  A
C905        C910   1.404       .  A
C905        H912   1.083   1_545  S
C906        C907   1.411       .  A
C907        C908   1.405       .  A
C907        F914   1.357       .  S
C908        C909   1.408       .  A
C908        H913   1.083       .  S
C909        C910   1.410       .  A
C910        F911   1.358       .  S
C915        C916   1.410       .  A
C915        C920   1.398       .  A
C915        H922   1.083       .  S
C916        C917   1.400       .  A
C917        C918   1.399       .  A
C917        F924   1.357       .  S
C918        C919   1.411       .  A
C918        H923   1.083       .  S
C919        C920   1.401       .  A
C920        F921   1.357       .  S
C925        C926   1.405       .  A
C925        C930   1.400       .  A
C925        H932   1.083       .  S
C926        C927   1.408       .  A
C927        C928   1.395       .  A
C927        F934   1.358       .  S
C928        C929   1.403       .  A
C928        H933   1.083       .  S
C929        C930   1.409       .  A
C930        F931   1.358       .  S
C935        C936   1.405       .  A
C935        C940   1.396       .  A
C935        H942   1.083       .  S
C936        C937   1.408       .  A
C937        C938   1.401       .  A
C937        F944   1.357       .  S
C938        C939   1.407       .  A
C938        H943   1.083       .  S
C939        C940   1.408       .  A
C940        F941   1.358       .  S
C945        C946   1.408       .  A
C945        C950   1.399       .  A
C945        H952   1.083       .  S
C946        C947   1.408       .  A
C947        C948   1.397       .  A
C947        F954   1.357       .  S
C948        C949   1.407       .  A
C948        H953   1.083       .  S
C949        C950   1.408       .  A
C950        F951   1.357       .  S
C955        C956   1.407       .  A
C955        C960   1.388   1_565  A
C955        H962   1.084       .  S
C956        C957   1.402       .  A
C957        C958   1.388   1_565  A
C957        F964   1.358       .  S
C958        C959   1.407       .  A
C958        H963   1.084       .  S
C959        C960   1.402       .  A
C960        F961   1.358       .  S
C965        C966   1.405       .  A
C965        C970   1.401       .  A
C965        H972   1.083       .  S
C966        C967   1.411       .  A
C967        C968   1.404       .  A
C967        F974   1.357       .  S
C968        C969   1.407       .  A
C968        H973   1.083       .  S
C969        C970   1.413       .  A
C970        F971   1.357   1_565  S
C975        C976   1.406       .  A
C975        C980   1.399       .  A
C975        H982   1.083       .  S
C976        C977   1.408       .  A
C977        C978   1.399       .  A
C977        F984   1.357       .  S
C978        C979   1.406       .  A
C978        H983   1.083       .  S
C979        C980   1.409       .  A
C980        F981   1.358       .  S
C985        C986   1.399       .  A
C985        C990   1.401       .  A
C985        H992   1.083       .  S
C986        C987   1.416       .  A
C987        C988   1.402       .  A
C987        F994   1.358       .  S
C988        C989   1.401       .  A
C988        H993   1.083       .  S
C989        C990   1.415       .  A
C990        F991   1.357       .  S
C995        C996   1.407       .  A
C995       C1000   1.406       .  A
C995       H1002   1.083       .  S
C996        C997   1.412       .  A
C997        C998   1.402       .  A
C997       F1004   1.358       .  S
C998        C999   1.407       .  A
C998       H1003   1.083       .  S
C999       C1000   1.413       .  A
C1000      F1001   1.357       .  S
C1005      C1006   1.401       .  A
C1005      C1010   1.391       .  A
C1005      H1012   1.083       .  S
C1006      C1007   1.410   1_556  A
C1007      C1008   1.391       .  A
C1007      F1014   1.358       .  S
C1008      C1009   1.401   1_554  A
C1008      H1013   1.083       .  S
C1009      C1010   1.410       .  A
C1010      F1011   1.358       .  S
C1015      C1016   1.404       .  A
C1015      C1020   1.403       .  A
C1015      H1022   1.083       .  S
C1016      C1017   1.408       .  A
C1017      C1018   1.398       .  A
C1017      F1024   1.358       .  S
C1018      C1019   1.408       .  A
C1018      H1023   1.083       .  S
C1019      C1020   1.411       .  A
C1020      F1021   1.357       .  S
C1025      C1026   1.411       .  A
C1025      C1030   1.401       .  A
C1025      H1032   1.083       .  S
C1026      C1027   1.399       .  A
C1027      C1028   1.400       .  A
C1027      F1034   1.357       .  S
C1028      C1029   1.414       .  A
C1028      H1033   1.083       .  S
C1029      C1030   1.402       .  A
C1030      F1031   1.357       .  S
C1035      C1036   1.408       .  A
C1035      C1040   1.406       .  A
C1035      H1042   1.083       .  S
C1036      C1037   1.412       .  A
C1037      C1038   1.407       .  A
C1037      F1044   1.357       .  S
C1038      C1039   1.408       .  A
C1038      H1043   1.083       .  S
C1039      C1040   1.412       .  A
C1040      F1041   1.357       .  S
C1045      C1046   1.403       .  A
C1045      C1050   1.393       .  A
C1045      H1052   1.084       .  S
C1046      C1047   1.406       .  A
C1047      C1048   1.391       .  A
C1047      F1054   1.358       .  S
C1048      C1049   1.401       .  A
C1048      H1053   1.084       .  S
C1049      C1050   1.407       .  A
C1050      F1051   1.358       .  S
C1055      C1056   1.407       .  A
C1055      C1060   1.404       .  A
C1055      H1062   1.083       .  S
C1056      C1057   1.409       .  A
C1057      C1058   1.402       .  A
C1057      F1064   1.357       .  S
C1058      C1059   1.408       .  A
C1058      H1063   1.083       .  S
C1059      C1060   1.411       .  A
C1060      F1061   1.357       .  S
C1065      C1066   1.406       .  A
C1065      C1070   1.402       .  A
C1065      H1072   1.083       .  S
C1066      C1067   1.412       .  A
C1067      C1068   1.405       .  A
C1067      F1074   1.357       .  S
C1068      C1069   1.407       .  A
C1068      H1073   1.083       .  S
C1069      C1070   1.411       .  A
C1070      F1071   1.357       .  S
C1075      C1076   1.406       .  A
C1075      C1080   1.396       .  A
C1075      H1082   1.083       .  S
C1076      C1077   1.407       .  A
C1077      C1078   1.396       .  A
C1077      F1084   1.358       .  S
C1078      C1079   1.406       .  A
C1078      H1083   1.083       .  S
C1079      C1080   1.406       .  A
C1080      F1081   1.357       .  S
C1085      C1086   1.407       .  A
C1085      C1090   1.402       .  A
C1085      H1092   1.083       .  S
C1086      C1087   1.410       .  A
C1087      C1088   1.400       .  A
C1087      F1094   1.358       .  S
C1088      C1089   1.406       .  A
C1088      H1093   1.083       .  S
C1089      C1090   1.409       .  A
C1090      F1091   1.357       .  S
C1095      C1096   1.408       .  A
C1095      C1100   1.398       .  A
C1095      H1102   1.084       .  S
C1096      C1097   1.400       .  A
C1097      C1098   1.401       .  A
C1097      F1104   1.358       .  S
C1098      C1099   1.412       .  A
C1098      H1103   1.083       .  S
C1099      C1100   1.402       .  A
C1100      F1101   1.357       .  S
C1105      C1106   1.408       .  A
C1105      C1110   1.400       .  A
C1105      H1112   1.083       .  S
C1106      C1107   1.407       .  A
C1107      C1108   1.403       .  A
C1107      F1114   1.357       .  S
C1108      C1109   1.409       .  A
C1108      H1113   1.083       .  S
C1109      C1110   1.408       .  A
C1110      F1111   1.358       .  S
C1115      C1116   1.405       .  A
C1115      C1120   1.387       .  A
C1115      H1122   1.084       .  S
C1116      C1117   1.404       .  A
C1117      C1118   1.390       .  A
C1117      F1124   1.358       .  S
C1118      C1119   1.406       .  A
C1118      H1123   1.084       .  S
C1119      C1120   1.402       .  A
C1120      F1121   1.358       .  S
C1125      C1126   1.404       .  A
C1125      C1130   1.396       .  A
C1125      H1132   1.083       .  S
C1126      C1127   1.410       .  A
C1127      C1128   1.395       .  A
C1127      F1134   1.357       .  S
C1128      C1129   1.403       .  A
C1128      H1133   1.083       .  S
C1129      C1130   1.410       .  A
C1130      F1131   1.358       .  S
C1135      C1136   1.406       .  A
C1135      C1140   1.403       .  A
C1135      H1142   1.083       .  S
C1136      C1137   1.409       .  A
C1137      C1138   1.397       .  A
C1137      F1144   1.358       .  S
C1138      C1139   1.406       .  A
C1138      H1143   1.083       .  S
C1139      C1140   1.411       .  A
C1140      F1141   1.357       .  S
C1145      C1146   1.407       .  A
C1145      C1150   1.407       .  A
C1145      H1152   1.083       .  S
C1146      C1147   1.411       .  A
C1147      C1148   1.400       .  A
C1147      F1154   1.357   1_545  S
C1148      C1149   1.406       .  A
C1148      H1153   1.083       .  S
C1149      C1150   1.413       .  A
C1150      F1151   1.357       .  S
C1155      C1156   1.400       .  A
C1155      C1160   1.392   1_545  A
C1155      H1162   1.083       .  S
C1156      C1157   1.412       .  A
C1157      C1158   1.389   1_545  A
C1157      F1164   1.358       .  S
C1158      C1159   1.398       .  A
C1158      H1163   1.083       .  S
C1159      C1160   1.414       .  A
C1160      F1161   1.359       .  S
C1165      C1166   1.407       .  A
C1165      C1170   1.397       .  A
C1165      H1172   1.083       .  S
C1166      C1167   1.408       .  A
C1167      C1168   1.395       .  A
C1167      F1174   1.358       .  S
C1168      C1169   1.406       .  A
C1168      H1173   1.083       .  S
C1169      C1170   1.408       .  A
C1170      F1171   1.357       .  S
C1175      C1176   1.413       .  A
C1175      C1180   1.400       .  A
C1175      H1182   1.083       .  S
C1176      C1177   1.403       .  A
C1177      C1178   1.396       .  A
C1177      F1184   1.357       .  S
C1178      C1179   1.408       .  A
C1178      H1183   1.084       .  S
C1179      C1180   1.399       .  A
C1180      F1181   1.357       .  S
C1185      C1186   1.407       .  A
C1185      C1190   1.404       .  A
C1185      H1192   1.083       .  S
C1186      C1187   1.413       .  A
C1187      C1188   1.403       .  A
C1187      F1194   1.357       .  S
C1188      C1189   1.405       .  A
C1188      H1193   1.083       .  S
C1189      C1190   1.412       .  A
C1190      F1191   1.357       .  S
C1195      C1196   1.407       .  A
C1195      C1200   1.387       .  A
C1195      H1202   1.085       .  S
C1196      C1197   1.404       .  A
C1197      C1198   1.389       .  A
C1197      F1204   1.358       .  S
C1198      C1199   1.407       .  A
C1198      H1203   1.085       .  S
C1199      C1200   1.403       .  A
C1200      F1201   1.358       .  S
C1205      C1206   1.406       .  A
C1205      C1210   1.399       .  A
C1205      H1212   1.083       .  S
C1206      C1207   1.408       .  A
C1207      C1208   1.394       .  A
C1207      F1214   1.357       .  S
C1208      C1209   1.404       .  A
C1208      H1213   1.083       .  S
C1209      C1210   1.410       .  A
C1210      F1211   1.358       .  S
C1215      C1216   1.406       .  A
C1215      C1220   1.390       .  A
C1215      H1222   1.084       .  S
C1216      C1217   1.404       .  A
C1217      C1218   1.390       .  A
C1217      F1224   1.358       .  S
C1218      C1219   1.405       .  A
C1218      H1223   1.084       .  S
C1219      C1220   1.404       .  A
C1220      F1221   1.358       .  S
C1225      C1226   1.406       .  A
C1225      C1230   1.401       .  A
C1225      H1232   1.083       .  S
C1226      C1227   1.412       .  A
C1227      C1228   1.405       .  A
C1227      F1234   1.357       .  S
C1228      C1229   1.407       .  A
C1228      H1233   1.083       .  S
C1229      C1230   1.412       .  A
C1230      F1231   1.357       .  S
C1235      C1236   1.407       .  A
C1235      C1240   1.399       .  A
C1235      H1242   1.083       .  S
C1236      C1237   1.409       .  A
C1237      C1238   1.398       .  A
C1237      F1244   1.357       .  S
C1238      C1239   1.405       .  A
C1238      H1243   1.083       .  S
C1239      C1240   1.407       .  A
C1240      F1241   1.357       .  S
C1245      C1246   1.410       .  A
C1245      C1250   1.405       .  A
C1245      H1252   1.083   1_565  S
C1246      C1247   1.410       .  A
C1247      C1248   1.407       .  A
C1247      F1254   1.357       .  S
C1248      C1249   1.410       .  A
C1248      H1253   1.083       .  S
C1249      C1250   1.410       .  A
C1250      F1251   1.357       .  S
C1255      C1256   1.404       .  A
C1255      C1260   1.395       .  A
C1255      H1262   1.083       .  S
C1256      C1257   1.411       .  A
C1257      C1258   1.403       .  A
C1257      F1264   1.357       .  S
C1258      C1259   1.406       .  A
C1258      H1263   1.083       .  S
C1259      C1260   1.409       .  A
C1260      F1261   1.358       .  S
C1265      C1266   1.405       .  A
C1265      C1270   1.398       .  A
C1265      H1272   1.085       .  S
C1266      C1267   1.407       .  A
C1267      C1268   1.399       .  A
C1267      F1274   1.357       .  S
C1268      C1269   1.407       .  A
C1268      H1273   1.084       .  S
C1269      C1270   1.410       .  A
C1270      F1271   1.358       .  S
C1275      C1276   1.401       .  A
C1275      C1280   1.405       .  A
C1275      H1282   1.083       .  S
C1276      C1277   1.413       .  A
C1277      C1278   1.401       .  A
C1277      F1284   1.358       .  S
C1278      C1279   1.401       .  A
C1278      H1283   1.083       .  S
C1279      C1280   1.416       .  A
C1280      F1281   1.357       .  S
C1285      C1286   1.410       .  A
C1285      C1290   1.406       .  A
C1285      H1292   1.083       .  S
C1286      C1287   1.412       .  A
C1287      C1288   1.399       .  A
C1287      F1294   1.358       .  S
C1288      C1289   1.405       .  A
C1288      H1293   1.084       .  S
C1289      C1290   1.407       .  A
C1290      F1291   1.357       .  S
C1295      C1296   1.404       .  A
C1295      C1300   1.397       .  A
C1295      H1302   1.083       .  S
C1296      C1297   1.410       .  A
C1297      C1298   1.396       .  A
C1297      F1304   1.358       .  S
C1298      C1299   1.404       .  A
C1298      H1303   1.083       .  S
C1299      C1300   1.409       .  A
C1300      F1301   1.358       .  S
C1305      C1306   1.406       .  A
C1305      C1310   1.406       .  A
C1305      H1312   1.083       .  S
C1306      C1307   1.407       .  A
C1307      C1308   1.397       .  A
C1307      F1314   1.358       .  S
C1308      C1309   1.408       .  A
C1308      H1313   1.083       .  S
C1309      C1310   1.412       .  A
C1310      F1311   1.357       .  S
C1315      C1316   1.405       .  A
C1315      C1320   1.406       .  A
C1315      H1322   1.083       .  S
C1316      C1317   1.411       .  A
C1317      C1318   1.401       .  A
C1317      F1324   1.358       .  S
C1318      C1319   1.407       .  A
C1318      H1323   1.083       .  S
C1319      C1320   1.414       .  A
C1320      F1321   1.357       .  S
C1325      C1326   1.407       .  A
C1325      C1330   1.392       .  A
C1325      H1332   1.084       .  S
C1326      C1327   1.403       .  A
C1327      C1328   1.390       .  A
C1327      F1334   1.358       .  S
C1328      C1329   1.407       .  A
C1328      H1333   1.084       .  S
C1329      C1330   1.404       .  A
C1330      F1331   1.358       .  S
C1335      C1336   1.405       .  A
C1335      C1340   1.397       .  A
C1335      H1342   1.083       .  S
C1336      C1337   1.410       .  A
C1337      C1338   1.397       .  A
C1337      F1344   1.358       .  S
C1338      C1339   1.405       .  A
C1338      H1343   1.083       .  S
C1339      C1340   1.410       .  A
C1340      F1341   1.357       .  S
C1345      C1346   1.411       .  A
C1345      C1350   1.401       .  A
C1345      H1352   1.083       .  S
C1346      C1347   1.403       .  A
C1347      C1348   1.400       .  A
C1347      F1354   1.357       .  S
C1348      C1349   1.410       .  A
C1348      H1353   1.083       .  S
C1349      C1350   1.402       .  A
C1350      F1351   1.357       .  S
C1355      C1356   1.407   1_455  A
C1355      C1360   1.402       .  A
C1355      H1362   1.083       .  S
C1356      C1357   1.409       .  A
C1357      C1358   1.408       .  A
C1357      F1364   1.357       .  S
C1358      C1359   1.411   1_655  A
C1358      H1363   1.083       .  S
C1359      C1360   1.411       .  A
C1360      F1361   1.357       .  S
C1365      C1366   1.402   1_455  A
C1365      C1370   1.392       .  A
C1365      H1372   1.084       .  S
C1366      C1367   1.406       .  A
C1367      C1368   1.389       .  A
C1367      F1374   1.358       .  S
C1368      C1369   1.400   1_655  A
C1368      H1373   1.084       .  S
C1369      C1370   1.408       .  A
C1370      F1371   1.359       .  S
C1375      C1376   1.405       .  A
C1375      C1380   1.394       .  A
C1375      H1382   1.083       .  S
C1376      C1377   1.408       .  A
C1377      C1378   1.394       .  A
C1377      F1384   1.358       .  S
C1378      C1379   1.405       .  A
C1378      H1383   1.083       .  S
C1379      C1380   1.408       .  A
C1380      F1381   1.358       .  S
C1385      C1386   1.404       .  A
C1385      C1390   1.397       .  A
C1385      H1392   1.083       .  S
C1386      C1387   1.407       .  A
C1387      C1388   1.399       .  A
C1387      F1394   1.358       .  S
C1388      C1389   1.407       .  A
C1388      H1393   1.083       .  S
C1389      C1390   1.410       .  A
C1390      F1391   1.358       .  S
C1395      C1396   1.402       .  A
C1395      C1400   1.390       .  A
C1395      H1402   1.084       .  S
C1396      C1397   1.404       .  A
C1397      C1398   1.391       .  A
C1397      F1404   1.358       .  S
C1398      C1399   1.402       .  A
C1398      H1403   1.084       .  S
C1399      C1400   1.405       .  A
C1400      F1401   1.358       .  S
C1405      C1406   1.406       .  A
C1405      C1410   1.400       .  A
C1405      H1412   1.083       .  S
C1406      C1407   1.409       .  A
C1407      C1408   1.407       .  A
C1407      F1414   1.357       .  S
C1408      C1409   1.410       .  A
C1408      H1413   1.083       .  S
C1409      C1410   1.411       .  A
C1410      F1411   1.358       .  S
C1415      C1416   1.407       .  A
C1415      C1420   1.403       .  A
C1415      H1422   1.083       .  S
C1416      C1417   1.413       .  A
C1417      C1418   1.407       .  A
C1417      F1424   1.357       .  S
C1418      C1419   1.407       .  A
C1418      H1423   1.083       .  S
C1419      C1420   1.411       .  A
C1420      F1421   1.357       .  S
C1425      C1426   1.405       .  A
C1425      C1430   1.395       .  A
C1425      H1432   1.083       .  S
C1426      C1427   1.408       .  A
C1427      C1428   1.393       .  A
C1427      F1434   1.358       .  S
C1428      C1429   1.405       .  A
C1428      H1433   1.083       .  S
C1429      C1430   1.408       .  A
C1430      F1431   1.358   1_455  S
C1435      C1436   1.405       .  A
C1435      C1440   1.397       .  A
C1435      H1442   1.083       .  S
C1436      C1437   1.408       .  A
C1437      C1438   1.400       .  A
C1437      F1444   1.358       .  S
C1438      C1439   1.407       .  A
C1438      H1443   1.083       .  S
C1439      C1440   1.408       .  A
C1440      F1441   1.357       .  S
C1445      C1446   1.398       .  A
C1445      C1450   1.398       .  A
C1445      H1452   1.083       .  S
C1446      C1447   1.414       .  A
C1447      C1448   1.398       .  A
C1447      F1454   1.358       .  S
C1448      C1449   1.398       .  A
C1448      H1453   1.083       .  S
C1449      C1450   1.415       .  A
C1450      F1451   1.358       .  S
C1455      C1456   1.406   1_655  A
C1455      C1460   1.397       .  A
C1455      H1462   1.083       .  S
C1456      C1457   1.410       .  A
C1457      C1458   1.404   1_455  A
C1457      F1464   1.357       .  S
C1458      C1459   1.408       .  A
C1458      H1463   1.083   1_655  S
C1459      C1460   1.408       .  A
C1460      F1461   1.358       .  S
C1465      C1466   1.406       .  A
C1465      C1470   1.396       .  A
C1465      H1472   1.083       .  S
C1466      C1467   1.407       .  A
C1467      C1468   1.396       .  A
C1467      F1474   1.358       .  S
C1468      C1469   1.406       .  A
C1468      H1473   1.083       .  S
C1469      C1470   1.408       .  A
C1470      F1471   1.358       .  S
C1475      C1476   1.406       .  A
C1475      C1480   1.400       .  A
C1475      H1482   1.083       .  S
C1476      C1477   1.412       .  A
C1477      C1478   1.402   1_655  A
C1477      F1484   1.357   1_655  S
C1478      C1479   1.405       .  A
C1478      H1483   1.083       .  S
C1479      C1480   1.410   1_455  A
C1480      F1481   1.358   1_565  S
C1485      C1486   1.406   1_554  A
C1485      C1490   1.390   1_545  A
C1485      H1492   1.084       .  S
C1486      C1487   1.403   1_455  A
C1487      C1488   1.389   1_545  A
C1487      F1494   1.358       .  S
C1488      C1489   1.406       .  A
C1488      H1493   1.084       .  S
C1489      C1490   1.405   1_656  A
C1490      F1491   1.358       .  S
C1495      C1496   1.405       .  A
C1495      C1500   1.405       .  A
C1495      H1502   1.083       .  S
C1496      C1497   1.412   1_655  A
C1497      C1498   1.401       .  A
C1497      F1504   1.358       .  S
C1498      C1499   1.406       .  A
C1498      H1503   1.083       .  S
C1499      C1500   1.413   1_455  A
C1500      F1501   1.357       .  S
C1505      C1506   1.403       .  A
C1505      C1510   1.397       .  A
C1505      H1512   1.083       .  S
C1506      C1507   1.407       .  A
C1507      C1508   1.396       .  A
C1507      F1514   1.358       .  S
C1508      C1509   1.406       .  A
C1508      H1513   1.083       .  S
C1509      C1510   1.410       .  A
C1510      F1511   1.357       .  S
C1515      C1516   1.405       .  A
C1515      C1520   1.408       .  A
C1515      H1522   1.083       .  S
C1516      C1517   1.410       .  A
C1517      C1518   1.402       .  A
C1517      F1524   1.358   1_545  S
C1518      C1519   1.404       .  A
C1518      H1523   1.083       .  S
C1519      C1520   1.413       .  A
C1520      F1521   1.357       .  S
C1525      C1526   1.401       .  A
C1525      C1530   1.403       .  A
C1525      H1532   1.083       .  S
C1526      C1527   1.418       .  A
C1527      C1528   1.397       .  A
C1527      F1534   1.358       .  S
C1528      C1529   1.395       .  A
C1528      H1533   1.083       .  S
C1529      C1530   1.414       .  A
C1530      F1531   1.358       .  S
C1535      C1536   1.404       .  A
C1535      C1540   1.403       .  A
C1535      H1542   1.083       .  S
C1536      C1537   1.409       .  A
C1537      C1538   1.401       .  A
C1537      F1544   1.358       .  S
C1538      C1539   1.405       .  A
C1538      H1543   1.083       .  S
C1539      C1540   1.412       .  A
C1540      F1541   1.358       .  S
C1545      C1546   1.407       .  A
C1545      C1550   1.400       .  A
C1545      H1552   1.083       .  S
C1546      C1547   1.396   1_556  A
C1547      C1548   1.390       .  A
C1547      F1554   1.358       .  S
C1548      C1549   1.412   1_554  A
C1548      H1553   1.083       .  S
C1549      C1550   1.405       .  A
C1550      F1551   1.357       .  S
C1555      C1556   1.404       .  A
C1555      C1560   1.395       .  A
C1555      H1562   1.083       .  S
C1556      C1557   1.409       .  A
C1557      C1558   1.397       .  A
C1557      F1564   1.358       .  S
C1558      C1559   1.405       .  A
C1558      H1563   1.083       .  S
C1559      C1560   1.408       .  A
C1560      F1561   1.357       .  S
C1565      C1566   1.408       .  A
C1565      C1570   1.407       .  A
C1565      H1572   1.083       .  S
C1566      C1567   1.413   1_655  A
C1567      C1568   1.404       .  A
C1567      F1574   1.357   1_545  S
C1568      C1569   1.407       .  A
C1568      H1573   1.083       .  S
C1569      C1570   1.413   1_455  A
C1570      F1571   1.357       .  S
C1575      C1576   1.405       .  A
C1575      C1580   1.398       .  A
C1575      H1582   1.083       .  S
C1576      C1577   1.407       .  A
C1577      C1578   1.396       .  A
C1577      F1584   1.357       .  S
C1578      C1579   1.405       .  A
C1578      H1583   1.083       .  S
C1579      C1580   1.409       .  A
C1580      F1581   1.358       .  S
C1585      C1586   1.407       .  A
C1585      C1590   1.401       .  A
C1585      H1592   1.083       .  S
C1586      C1587   1.414       .  A
C1587      C1588   1.408   1_655  A
C1587      F1594   1.357   1_655  S
C1588      C1589   1.407       .  A
C1588      H1593   1.083       .  S
C1589      C1590   1.410   1_455  A
C1590      F1591   1.358       .  S
C1595      C1596   1.402   1_455  A
C1595      C1600   1.393       .  A
C1595      H1602   1.084       .  S
C1596      C1597   1.406       .  A
C1597      C1598   1.390       .  A
C1597      F1604   1.358       .  S
C1598      C1599   1.401   1_655  A
C1598      H1603   1.084       .  S
C1599      C1600   1.407       .  A
C1600      F1601   1.358       .  S
C1605      C1606   1.407       .  A
C1605      C1610   1.396       .  A
C1605      H1612   1.083       .  S
C1606      C1607   1.408       .  A
C1607      C1608   1.396       .  A
C1607      F1614   1.357       .  S
C1608      C1609   1.406       .  A
C1608      H1613   1.083       .  S
C1609      C1610   1.408       .  A
C1610      F1611   1.358       .  S
C1615      C1616   1.408       .  A
C1615      C1620   1.399       .  A
C1615      H1622   1.083   1_565  S
C1616      C1617   1.406       .  A
C1617      C1618   1.400       .  A
C1617      F1624   1.357       .  S
C1618      C1619   1.408       .  A
C1618      H1623   1.083       .  S
C1619      C1620   1.407       .  A
C1620      F1621   1.357       .  S
C1625      C1626   1.403       .  A
C1625      C1630   1.392   1_565  A
C1625      H1632   1.084       .  S
C1626      C1627   1.407       .  A
C1627      C1628   1.390   1_565  A
C1627      F1634   1.358       .  S
C1628      C1629   1.401       .  A
C1628      H1633   1.084       .  S
C1629      C1630   1.406       .  A
C1630      F1631   1.358       .  S
C1635      C1636   1.408       .  A
C1635      C1640   1.394       .  A
C1635      H1642   1.083       .  S
C1636      C1637   1.407       .  A
C1637      C1638   1.397       .  A
C1637      F1644   1.357       .  S
C1638      C1639   1.406       .  A
C1638      H1643   1.083       .  S
C1639      C1640   1.404       .  A
C1640      F1641   1.358       .  S
C1645      C1646   1.401       .  A
C1645      C1650   1.402       .  A
C1645      H1652   1.083       .  S
C1646      C1647   1.418       .  A
C1647      C1648   1.403       .  A
C1647      F1654   1.358       .  S
C1648      C1649   1.399       .  A
C1648      H1653   1.083       .  S
C1649      C1650   1.414       .  A
C1650      F1651   1.358       .  S
C1655      C1656   1.404       .  A
C1655      C1660   1.403       .  A
C1655      H1662   1.083       .  S
C1656      C1657   1.413       .  A
C1657      C1658   1.402       .  A
C1657      F1664   1.358       .  S
C1658      C1659   1.405       .  A
C1658      H1663   1.083       .  S
C1659      C1660   1.414       .  A
C1660      F1661   1.357       .  S
