geometry optimzed in LAMMPS
_audit_creation_date              2020-12-01 
_audit_creation_method            'lammps2cif' 
_symmetry_space_group_name_H-M    'P1' 
_symmetry_Int_Tables_number       1 
_symmetry_cell_setting            triclinic 
loop_ 
_symmetry_equiv_pos_as_xyz 
  x,y,z 
_cell_length_a                    58.25110238 
_cell_length_b                    31.167664603827152 
_cell_length_c                    58.14937186672277 
_cell_angle_alpha                 89.9538695067525 
_cell_angle_beta                  89.94975399824912 
_cell_angle_gamma                 90.02720668953135 
loop_ 
_atom_site_label 
_atom_site_type_symbol 
_atom_site_fract_x 
_atom_site_fract_y 
_atom_site_fract_z 
_atom_site_charge 
Zr1        Zr  0.60472407  0.22658749  0.85743895     2.17500
O2          O  0.57473405  0.19627996  0.83301869    -0.52100
O3          O  0.61299950  0.15163443  0.86632621    -0.75300
O4          O  0.61754941  0.21364702  0.81770101    -0.82100
O5          O  0.55881905  0.26090911  0.90109029    -0.83800
O6          O  0.65132349  0.24831756  0.81212929    -0.79500
O7          O  0.56480809  0.22047965  0.86910428    -0.91100
O8          O  0.64025598  0.14885400  0.89396929    -0.77100
O9          O  0.64477840  0.22059978  0.86466623    -0.86600
O10         O  0.60892925  0.22595060  0.89833155    -0.86200
O11         O  0.62055017  0.28990024  0.83977193    -0.73000
O12         O  0.58900597  0.29274355  0.87171530    -0.85100
Zr13       Zr  0.65227911  0.34972710  0.90153306     2.26400
Zr14       Zr  0.66079111  0.28378119  0.84761235     2.06300
Zr15       Zr  0.59474008  0.29322805  0.91235217     2.10000
Zr16       Zr  0.64886974  0.22108165  0.90549410     1.78800
O17         O  0.56385969  0.34392436  0.91993545    -0.93900
O18         O  0.68574350  0.18557085  0.90011273    -0.41700
O19         O  0.63494235  0.28813034  0.91958690    -0.78400
O20         O  0.66710937  0.28158021  0.88836748    -0.97100
O21         O  0.64620222  0.35094614  0.86100476    -0.90400
O22         O  0.61177967  0.35560401  0.89550626    -0.93200
C23         C  0.62670218  0.13098596  0.87959252     1.00500
C24         C  0.55198761  0.23565426  0.88510399     1.13500
C25         C  0.63466863  0.22509797  0.80505339     1.04300
O26         O  0.69053106  0.23226579  0.83755332    -0.95400
O27         O  0.69704142  0.31535979  0.85697145    -0.91100
O28         O  0.69354300  0.35035397  0.89089898    -0.84300
C29         C  0.70558946  0.33601954  0.87391408     1.10900
O30         O  0.57461832  0.34621579  0.82740231    -0.97300
Zr31       Zr  0.60575746  0.35506998  0.85502641     1.88900
O32         O  0.64506778  0.42448942  0.89013511    -0.74000
O33         O  0.67355826  0.33286880  0.81760072    -0.53300
O34         O  0.61746860  0.38405452  0.81786141    -0.97900
O35         O  0.57045072  0.39144967  0.86631964    -0.55100
O36         O  0.61762958  0.42718854  0.86258860    -0.74500
C37         C  0.63203813  0.44506099  0.87607691     0.97800
O38         O  0.67478230  0.39331167  0.92804339    -0.63300
O39         O  0.58361477  0.24760666  0.94455020    -0.58100
O40         O  0.64165911  0.35504036  0.94237018    -0.94800
O41         O  0.60547665  0.32960192  0.94766914    -0.93200
O42         O  0.63283835  0.18817928  0.93995352    -0.93600
O43         O  0.67430172  0.22886244  0.93843349    -0.92400
C44         C  0.62395594  0.34738543  0.95502939     1.16700
H45         H  0.60071766  0.20207892  0.90502396     0.32600
H46         H  0.68299235  0.27681207  0.89222233     0.43500
H47         H  0.60575091  0.38129986  0.90256676     0.37000
H48         H  0.61720262  0.29162488  0.82355760     0.33500
H49         H  0.68517002  0.16025035  0.91040693     0.25300
H50         H  0.68401868  0.31556319  0.80788872     0.31200
H51         H  0.61092439  0.41334641  0.81732336     0.37100
H52         H  0.64003210  0.15943105  0.94072573     0.31600
H53         H  0.57071706  0.26299438  0.95196183     0.30500
H54         H  0.55679303  0.33382243  0.93445333     0.32100
H55         H  0.57504465  0.41261465  0.87813350     0.31100
H56         H  0.68184386  0.25702122  0.93613095     0.35100
H57         H  0.68523272  0.37298227  0.93580609     0.27800
H58         H  0.58113272  0.16938639  0.82662942     0.32100
H59         H  0.57197411  0.37500223  0.82070346     0.34900
H60         H  0.57641468  0.22195961  0.93757795     0.27500
H61         H  0.68487735  0.41151562  0.91840154     0.40400
H62         H  0.69845860  0.22602595  0.85222313     0.30500
H63         H  0.68502060  0.17336980  0.88441759     0.38100
H64         H  0.56160995  0.36951100  0.87489982     0.29900
H65         H  0.65984863  0.33764005  0.80789561     0.30000
H66         H  0.57333238  0.21596021  0.81971679     0.30300
Zr67       Zr  0.60589758  0.72721124  0.85558915     2.17500
O68         O  0.57578958  0.68973125  0.83445015    -0.52100
O69         O  0.61697027  0.65238260  0.86212325    -0.75300
O70         O  0.61482302  0.72175720  0.81425142    -0.82100
O71         O  0.56150216  0.75561604  0.90255454    -0.83800
O72         O  0.64929628  0.75406381  0.80875623    -0.79500
O73         O  0.56633600  0.72121117  0.86832213    -0.91100
O74         O  0.64398635  0.64838642  0.88997916    -0.77100
O75         O  0.64635390  0.72377501  0.86025908    -0.86600
O76         O  0.61255310  0.72272192  0.89614025    -0.86200
O77         O  0.61931693  0.79355265  0.83899150    -0.73000
O78         O  0.58967316  0.79056041  0.87269456    -0.85100
Zr79       Zr  0.65304008  0.84934601  0.90042547     2.26400
Zr80       Zr  0.66009572  0.78974143  0.84414145     2.06300
Zr81       Zr  0.59777515  0.78724782  0.91292420     2.10000
Zr82       Zr  0.65299397  0.72064179  0.90076268     1.78800
O83         O  0.56603723  0.83186427  0.92605075    -0.93900
O84         O  0.68937211  0.68923190  0.88874816    -0.41700
O85         O  0.63835043  0.78479525  0.91783593    -0.78400
O86         O  0.66842721  0.78400991  0.88444166    -0.97100
O87         O  0.64483504  0.85427720  0.86039096    -0.90400
O88         O  0.61225445  0.85268502  0.89705017    -0.93200
C89         C  0.63048837  0.63114986  0.87536645     1.00500
C90         C  0.55422478  0.73351800  0.88550790     1.13500
C91         C  0.63170593  0.73346632  0.80137017     1.04300
O92         O  0.69189538  0.74482702  0.83150701    -0.95400
O93         O  0.69649461  0.82227186  0.85364858    -1.03900
O94         O  0.69367207  0.85324997  0.88881507    -0.84300
C95         C  0.70534426  0.84103889  0.87116760     1.10900
O96         O  0.57271583  0.85097560  0.82935466    -0.97300
Zr97       Zr  0.60398729  0.85590668  0.85707806     1.88900
O98         O  0.64499220  0.92405782  0.89011136    -0.74000
O99         O  0.66746253  0.84223811  0.81393806    -0.53300
O100        O  0.61236730  0.89400962  0.82144366    -0.97900
O101        O  0.56813545  0.88420709  0.87260070    -0.55100
O102        O  0.61430110  0.92812897  0.86634450    -0.74500
C103        C  0.63012649  0.94528132  0.87840650     0.97800
O104        O  0.67536037  0.89059295  0.92809568    -0.63300
O105        O  0.59175111  0.73495660  0.94352238    -0.58100
O106        O  0.64418200  0.85421983  0.94141870    -0.94800
O107        O  0.60896152  0.82513631  0.94747857    -0.93200
O108        O  0.64304066  0.68505344  0.93671398    -0.93600
O109        O  0.68247193  0.72826215  0.93016200    -0.92400
C110        C  0.62699611  0.84495495  0.95435003     1.16700
H111        H  0.60524813  0.69765257  0.90268174     0.32600
H112        H  0.68449558  0.77958513  0.88747506     0.43500
H113        H  0.60614661  0.87714170  0.90521779     0.37000
H114        H  0.61509261  0.79707661  0.82307910     0.33500
H115        H  0.68991750  0.66089512  0.89644119     0.25300
H116        H  0.68223563  0.83318151  0.80704521     0.31200
H117        H  0.62865773  0.90272706  0.82278827     0.37100
H118        H  0.65242257  0.65856245  0.93686138     0.31600
H119        H  0.60542839  0.73768535  0.95351580     0.30500
H120        H  0.56213542  0.82077368  0.94152797     0.32100
H121        H  0.57268160  0.90733241  0.88333001     0.31100
H122        H  0.68487044  0.75961298  0.93155272     0.35100
H123        H  0.68679234  0.87030517  0.93435043     0.27800
H124        H  0.58363150  0.66733521  0.82528002     0.32100
H125        H  0.56772907  0.88090924  0.82656745     0.34900
H126        H  0.57900782  0.74686449  0.95280543     0.27500
H127        H  0.68437528  0.91148628  0.91897365     0.40400
H128        H  0.68558147  0.71534836  0.83108019     0.30500
H129        H  0.68726626  0.68243645  0.87225773     0.38100
H130        H  0.56212827  0.86111205  0.88263489     0.29900
H131        H  0.65589431  0.83629142  0.80188796     0.30000
H132        H  0.56996904  0.71063801  0.82305501     0.30300
Zr133      Zr  0.60415854  0.20441940  0.65294929     2.17500
O134        O  0.57369014  0.23962822  0.67467577    -0.52100
O135        O  0.61364325  0.27979342  0.64584464    -0.75300
O136        O  0.61453749  0.21219860  0.69387716    -0.82100
O137        O  0.55971913  0.17470062  0.60606911    -0.83800
O138        O  0.64999121  0.18334206  0.69832655    -0.79500
O139        O  0.56477320  0.21071739  0.63950325    -0.91100
O140        O  0.63947572  0.28369966  0.61678652    -0.77100
O141        O  0.64428357  0.21139388  0.64646189    -0.86600
O142        O  0.60926614  0.20638801  0.61222309    -0.86200
O143        O  0.62015937  0.14066931  0.66995695    -0.73000
O144        O  0.58884732  0.13809363  0.63810690    -0.85100
Zr145      Zr  0.65293406  0.08299773  0.60857264     2.26400
Zr146      Zr  0.66055529  0.14797587  0.66303278     2.06300
Zr147      Zr  0.59558173  0.13930955  0.59752598     2.10000
Zr148      Zr  0.64930795  0.21193310  0.60576617     1.78800
O149        O  0.56561088  0.08688684  0.58968028    -0.93900
O150        O  0.68573732  0.24724697  0.61394314    -0.41700
O151        O  0.63580863  0.14509924  0.59107277    -0.78400
O152        O  0.66728671  0.15104504  0.62241289    -0.97100
O153        O  0.64662289  0.08064688  0.64896065    -0.90400
O154        O  0.61245988  0.07650770  0.61400141    -0.93200
C155        C  0.62651565  0.30092203  0.63190743     1.00500
C156        C  0.55244745  0.19872703  0.62235591     1.13500
C157        C  0.63211422  0.20225579  0.70623781     1.04300
O158        O  0.68986989  0.20137617  0.67153122    -0.95400
O159        O  0.69706669  0.11554591  0.65388102    -0.91100
O160        O  0.69404536  0.08486314  0.61866676    -0.84300
C161        C  0.70591596  0.09817838  0.63596326     1.10900
O162        O  0.57500127  0.08081745  0.68239732    -0.97300
Zr163      Zr  0.60612658  0.07537078  0.65444230     1.88900
O164        O  0.64588504  0.00809110  0.62019471    -0.74000
O165        O  0.67135310  0.10281826  0.69547287    -0.53300
O166        O  0.61916048  0.05058526  0.69199533    -0.97900
O167        O  0.57217708  0.03518921  0.64265556    -0.55100
O168        O  0.61911780  0.00314453  0.64836753    -0.74500
C169        C  0.63356877  0.98640126  0.63450573     0.97800
O170        O  0.67449272  0.03826445  0.58188157    -0.63300
O171        O  0.58686727  0.18233969  0.56359014    -0.58100
O172        O  0.64398731  0.07991630  0.56738629    -0.94800
O173        O  0.60781083  0.10509022  0.56231519    -0.93200
O174        O  0.63437123  0.24243925  0.57022998    -0.93600
O175        O  0.67705307  0.20792173  0.57450951    -0.92400
C176        C  0.62639721  0.08808448  0.55475940     1.16700
H177        H  0.60109358  0.23029915  0.60548264     0.32600
H178        H  0.68311567  0.15682165  0.61874881     0.43500
H179        H  0.60666280  0.05091154  0.60663035     0.37000
H180        H  0.61659658  0.13757130  0.68606168     0.33500
H181        H  0.68490368  0.27510346  0.60577950     0.25300
H182        H  0.67296922  0.07363310  0.68896150     0.31200
H183        H  0.61009015  0.02441566  0.69522199     0.37100
H184        H  0.64064128  0.27195718  0.56970628     0.31600
H185        H  0.57431341  0.16674213  0.55573091     0.30500
H186        H  0.55484073  0.10179169  0.57921889     0.32100
H187        H  0.57745861  0.01544784  0.63041744     0.31100
H188        H  0.67871898  0.17682899  0.57144786     0.35100
H189        H  0.68746300  0.05631074  0.57660311     0.27800
H190        H  0.58123102  0.26123547  0.68458898     0.32100
H191        H  0.57154066  0.05102218  0.68720690     0.34900
H192        H  0.57964309  0.20892412  0.56942127     0.27500
H193        H  0.68156163  0.01557665  0.59143533     0.40400
H194        H  0.69778672  0.19032045  0.68537292     0.30500
H195        H  0.68487789  0.25488558  0.63044277     0.38100
H196        H  0.56249918  0.05645545  0.63454888     0.29900
H197        H  0.68721657  0.11161412  0.69936781     0.30000
H198        H  0.56768990  0.21746024  0.68529079     0.30300
Zr199      Zr  0.60397401  0.70653313  0.64945367     2.17500
O200        O  0.57441807  0.74093692  0.67281892    -0.52100
O201        O  0.61584745  0.78091378  0.64164450    -0.75300
O202        O  0.61564731  0.71649327  0.68996846    -0.82100
O203        O  0.55746674  0.67117262  0.60553198    -0.83800
O204        O  0.65004052  0.68388503  0.69510319    -0.79500
O205        O  0.56431419  0.71480486  0.63621085    -0.91100
O206        O  0.64313066  0.78159957  0.61387088    -0.77100
O207        O  0.64426278  0.70861479  0.64304194    -0.86600
O208        O  0.60899204  0.70668340  0.60863349    -0.86200
O209        O  0.61817519  0.64197626  0.66730141    -0.73000
O210        O  0.58746655  0.64095652  0.63499024    -0.85100
Zr211      Zr  0.65029732  0.58028773  0.60635945     2.26400
Zr212      Zr  0.65869395  0.64441773  0.66057414     2.06300
Zr213      Zr  0.59386614  0.64014981  0.59439421     2.10000
Zr214      Zr  0.64917852  0.70846486  0.60226819     1.78800
O215        O  0.56277498  0.59200479  0.58356624    -0.93900
O216        O  0.68672707  0.74155171  0.60735931    -0.41700
O217        O  0.63423734  0.64250060  0.58789196    -0.78400
O218        O  0.66574377  0.64734728  0.62005060    -0.97100
O219        O  0.64334513  0.57842305  0.64668616    -0.90400
O220        O  0.60951880  0.57678322  0.61157136    -0.93200
C221        C  0.63012047  0.80053095  0.62834380     1.00500
C222        C  0.55109358  0.69821232  0.62086844     1.13500
C223        C  0.63304797  0.70592707  0.70248483     1.04300
O224        O  0.69158274  0.68769127  0.67176809    -0.95400
O225        O  0.69490619  0.61106223  0.65153762    -0.91100
O226        O  0.69161568  0.57965943  0.61654181    -0.84300
C227        C  0.70362109  0.59284938  0.63380789     1.10900
O228        O  0.57256870  0.58722942  0.68062719    -0.97300
Zr229      Zr  0.60268592  0.57734674  0.65194460     1.88900
O230        O  0.64165407  0.50660152  0.61790137    -0.74000
O231        O  0.66396776  0.59168212  0.69109651    -0.53300
O232        O  0.61345476  0.54475700  0.68850776    -0.97900
O233        O  0.56621603  0.54551018  0.64040325    -0.55100
O234        O  0.61321349  0.50422300  0.64452502    -0.74500
C235        C  0.62782806  0.48629894  0.63125554     0.97800
O236        O  0.67187555  0.53296848  0.58085833    -0.63300
O237        O  0.58542647  0.69127184  0.56377961    -0.58100
O238        O  0.64113760  0.57616944  0.56542391    -0.94800
O239        O  0.60517756  0.60228923  0.55958651    -0.93200
O240        O  0.63402388  0.74074161  0.56727339    -0.93600
O241        O  0.67575030  0.69478784  0.57071917    -0.92400
C242        C  0.62362885  0.58382199  0.55261165     1.16700
H243        H  0.60140658  0.73110300  0.60173685     0.32600
H244        H  0.68170304  0.65212753  0.61657575     0.43500
H245        H  0.60316035  0.55146484  0.60441748     0.37000
H246        H  0.61454916  0.64051435  0.68344212     0.33500
H247        H  0.68630833  0.76779094  0.59774743     0.25300
H248        H  0.67981943  0.59648268  0.69665692     0.31200
H249        H  0.61416329  0.56870701  0.69964788     0.37100
H250        H  0.64675227  0.75843472  0.56113907     0.31600
H251        H  0.59524765  0.68260984  0.55068098     0.30500
H252        H  0.55525319  0.60623264  0.57034494     0.32100
H253        H  0.57016200  0.51742730  0.63353087     0.31100
H254        H  0.68135481  0.66519211  0.57335465     0.35100
H255        H  0.68375593  0.55121879  0.57357921     0.27800
H256        H  0.58174678  0.76674621  0.67950294     0.32100
H257        H  0.56815075  0.55798115  0.68560417     0.34900
H258        H  0.56961471  0.68423876  0.55882280     0.27500
H259        H  0.68046487  0.51323697  0.59103212     0.40400
H260        H  0.69586084  0.70345893  0.65761219     0.30500
H261        H  0.68667289  0.75227259  0.62337817     0.38100
H262        H  0.56103051  0.56317447  0.62725575     0.29900
H263        H  0.65407574  0.60153838  0.70389397     0.30000
H264        H  0.57172437  0.72144615  0.68601027     0.30300
Zr265      Zr  0.40336366  0.21020274  0.85592335     2.17500
O266        O  0.43320870  0.24708177  0.83397997    -0.52100
O267        O  0.39349155  0.28511598  0.86468029    -0.75300
O268        O  0.39330919  0.21782190  0.81482943    -0.82100
O269        O  0.44821373  0.17523723  0.90124224    -0.83800
O270        O  0.35801569  0.18847042  0.80947004    -0.79500
O271        O  0.44320449  0.21403888  0.86837568    -0.91100
O272        O  0.36866730  0.28769519  0.89471220    -0.77100
O273        O  0.36296589  0.21476994  0.86115844    -0.86600
O274        O  0.39705037  0.21207823  0.89656902    -0.86200
O275        O  0.38900263  0.14533822  0.83854171    -0.73000
O276        O  0.41889531  0.14494160  0.87171609    -0.85100
Zr277      Zr  0.35519520  0.08681474  0.89966125     2.26400
Zr278      Zr  0.34835434  0.15026310  0.84429293     2.06300
Zr279      Zr  0.41137355  0.14614203  0.91211802     2.10000
Zr280      Zr  0.35665728  0.21533574  0.90176575     1.78800
O281        O  0.44157035  0.09696388  0.92404809    -0.93900
O282        O  0.32210707  0.25374152  0.89015521    -0.41700
O283        O  0.37088415  0.14985181  0.91750306    -0.78400
O284        O  0.34022935  0.15335467  0.88464654    -0.97100
O285        O  0.36282665  0.08410763  0.85945228    -0.90400
O286        O  0.39589136  0.08229794  0.89549666    -0.93200
C287        C  0.38149572  0.30559192  0.87971041     1.00500
C288        C  0.45551920  0.19902056  0.88481811     1.13500
C289        C  0.37591266  0.20812020  0.80213982     1.04300
O290        O  0.31669732  0.19859026  0.83573496    -0.95400
O291        O  0.31215698  0.11620482  0.85202889    -0.91100
O292        O  0.31492700  0.08344180  0.88683246    -0.84300
C293        C  0.30347956  0.09593401  0.86908512     1.10900
O294        O  0.43457352  0.08494899  0.82720394    -0.97300
Zr295      Zr  0.40352821  0.08102298  0.85530887     1.88900
O296        O  0.36415253  0.01188315  0.89042881    -0.74000
O297        O  0.34034523  0.10224375  0.81224938    -0.53300
O298        O  0.39209375  0.04879479  0.81891597    -0.97900
O299        O  0.43924584  0.04809274  0.86832013    -0.55100
O300        O  0.39293468  0.00861097  0.86424442    -0.74500
C301        C  0.37826781  0.99104474  0.87760454     0.97800
O302        O  0.33077650  0.04614269  0.92594384    -0.63300
O303        O  0.41894714  0.19694988  0.94308553    -0.58100
O304        O  0.36358969  0.08392732  0.94091353    -0.94800
O305        O  0.39948401  0.11010217  0.94714402    -0.93200
O306        O  0.36613491  0.24465663  0.93934904    -0.93600
O307        O  0.32603070  0.20583839  0.92985091    -0.92400
C308        C  0.38082035  0.09232279  0.95400322     1.16700
H309        H  0.40468755  0.23638472  0.90345432     0.32600
H310        H  0.32410242  0.15747656  0.88760833     0.43500
H311        H  0.40192679  0.05726071  0.90324285     0.37000
H312        H  0.39292276  0.14265261  0.82247858     0.33500
H313        H  0.31993241  0.27602130  0.90209488     0.25300
H314        H  0.32829648  0.11708786  0.80325982     0.31200
H315        H  0.37630911  0.03806744  0.82157106     0.37100
H316        H  0.37214581  0.21994423  0.94818643     0.31600
H317        H  0.42827808  0.18071095  0.95433585     0.30500
H318        H  0.44542671  0.10567964  0.93995067     0.32100
H319        H  0.43481417  0.02848398  0.88096960     0.31100
H320        H  0.32328227  0.17448776  0.93025765     0.35100
H321        H  0.31781474  0.06535881  0.92987025     0.27800
H322        H  0.42542894  0.27098680  0.82591021     0.32100
H323        H  0.43740579  0.05496376  0.82234418     0.34900
H324        H  0.42971496  0.21829159  0.93652783     0.27500
H325        H  0.32390224  0.02291507  0.91660289     0.40400
H326        H  0.31097080  0.20778965  0.85098645     0.30500
H327        H  0.32662677  0.26999773  0.87623311     0.38100
H328        H  0.44774152  0.07156677  0.87600416     0.29900
H329        H  0.35419109  0.10365560  0.80238854     0.30000
H330        H  0.43781960  0.22687327  0.82169046     0.30300
Zr331      Zr  0.40593071  0.70922031  0.85715412     2.17500
O332        O  0.43578123  0.74787476  0.83624956    -0.52100
O333        O  0.39673173  0.78455222  0.86550757    -0.75300
O334        O  0.39558423  0.71894277  0.81633727    -0.82100
O335        O  0.45071284  0.67474093  0.90313826    -0.83800
O336        O  0.35947916  0.69304767  0.81205661    -0.79500
O337        O  0.44610064  0.70816507  0.86867154    -0.91100
O338        O  0.36900489  0.78748134  0.89280740    -0.77100
O339        O  0.36601592  0.71687309  0.86441978    -0.86600
O340        O  0.40140307  0.70953650  0.89799738    -0.86200
O341        O  0.38928423  0.64667119  0.83943415    -0.73000
O342        O  0.42072563  0.64208591  0.87128445    -0.85100
Zr343      Zr  0.35691848  0.58681570  0.90088938     2.26400
Zr344      Zr  0.34911224  0.65502697  0.84704043     2.06300
Zr345      Zr  0.41460546  0.64155128  0.91197913     2.10000
Zr346      Zr  0.36149293  0.71541853  0.90520420     1.78800
O347        O  0.44509703  0.58978606  0.91905489    -0.93900
O348        O  0.32371660  0.74772750  0.90045681    -0.41700
O349        O  0.37452792  0.64769475  0.91912559    -0.78400
O350        O  0.34301283  0.65563858  0.88785590    -0.97100
O351        O  0.36262810  0.58647932  0.86027041    -0.90400
O352        O  0.39728615  0.57974900  0.89494755    -0.93200
C353        C  0.38267688  0.80525558  0.87847976     1.00500
C354        C  0.45824579  0.69604399  0.88591102     1.13500
C355        C  0.37762538  0.71118470  0.80408998     1.04300
O356        O  0.31914206  0.70872083  0.84210264    -0.95400
O357        O  0.31277094  0.62198552  0.85563066    -0.91100
O358        O  0.31606278  0.58742935  0.88993140    -0.84300
C359        C  0.30429144  0.60175838  0.87283233     1.10900
O360        O  0.43239259  0.58323738  0.82448109    -0.97300
Zr361      Zr  0.40308411  0.58052548  0.85442513     1.88900
O362        O  0.36440149  0.51165591  0.89042278    -0.74000
O363        O  0.33600860  0.61376039  0.81400186    -0.53300
O364        O  0.39007419  0.55347751  0.81735876    -0.97900
O365        O  0.43901586  0.54541169  0.86493381    -0.55100
O366        O  0.39160395  0.50818357  0.86251701    -0.74500
C367        C  0.37741358  0.49078354  0.87643552     0.97800
O368        O  0.33195164  0.55000791  0.92831252    -0.63300
O369        O  0.42413931  0.68484374  0.94557535    -0.58100
O370        O  0.36757434  0.57739784  0.94125819    -0.94800
O371        O  0.40314388  0.60522449  0.94683666    -0.93200
O372        O  0.37907551  0.74870130  0.93874041    -0.93600
O373        O  0.33732514  0.70919068  0.93922787    -0.92400
C374        C  0.38517150  0.58548269  0.95389118     1.16700
H375        H  0.40984656  0.73301369  0.90476206     0.32600
H376        H  0.32713448  0.66060431  0.89166946     0.43500
H377        H  0.40314049  0.55387412  0.90200344     0.37000
H378        H  0.39251822  0.64414891  0.82323262     0.33500
H379        H  0.32452286  0.77514158  0.90901703     0.25300
H380        H  0.32587235  0.63359930  0.80540503     0.31200
H381        H  0.37352515  0.54747148  0.81950506     0.37100
H382        H  0.36990258  0.77492797  0.94152437     0.31600
H383        H  0.43700272  0.66945234  0.95303967     0.30500
H384        H  0.45408928  0.60219433  0.93187384     0.32100
H385        H  0.43536476  0.52769045  0.87858763     0.31100
H386        H  0.33287624  0.67853114  0.93972882     0.35100
H387        H  0.32066082  0.57170393  0.93350973     0.27800
H388        H  0.42789875  0.77096394  0.82762401     0.32100
H389        H  0.43547737  0.55298587  0.82028073     0.34900
H390        H  0.43115368  0.71145058  0.93947069     0.27500
H391        H  0.32297019  0.52891407  0.91932499     0.40400
H392        H  0.32738814  0.73629630  0.84029211     0.30500
H393        H  0.32313425  0.75639606  0.88409017     0.38100
H394        H  0.44887949  0.56874627  0.87091738     0.29900
H395        H  0.34973217  0.61049700  0.80410563     0.30000
H396        H  0.44143560  0.72770459  0.82441856     0.30300
Zr397      Zr  0.40405651  0.24008341  0.65076779     2.17500
O398        O  0.43294691  0.20204379  0.67326694    -0.52100
O399        O  0.39360884  0.16520379  0.64223078    -0.75300
O400        O  0.39165949  0.22998654  0.69117527    -0.82100
O401        O  0.45031023  0.27356396  0.60631459    -0.83800
O402        O  0.35714831  0.26226783  0.69563838    -0.79500
O403        O  0.44459784  0.23815835  0.64010766    -0.91100
O404        O  0.36688127  0.16372828  0.61398947    -0.77100
O405        O  0.36411898  0.23572869  0.64306592    -0.86600
O406        O  0.40016616  0.24021438  0.60977550    -0.86200
O407        O  0.38845793  0.30365818  0.66833413    -0.73000
O408        O  0.42018061  0.30626217  0.63657441    -0.85100
Zr409      Zr  0.35794043  0.36574163  0.60616197     2.26400
Zr410      Zr  0.34829720  0.29905479  0.66008243     2.06300
Zr411      Zr  0.41470498  0.30760674  0.59576491     2.10000
Zr412      Zr  0.36022871  0.23639246  0.60225693     1.78800
O413        O  0.44341498  0.36314565  0.58913421    -0.93900
O414        O  0.32288276  0.20299170  0.60876425    -0.41700
O415        O  0.37457436  0.30333799  0.58839814    -0.78400
O416        O  0.34268702  0.29767137  0.61915811    -0.97100
O417        O  0.36325952  0.36615894  0.64683548    -0.90400
O418        O  0.39838828  0.37014295  0.61283124    -0.93200
C419        C  0.37968393  0.14523601  0.62877797     1.00500
C420        C  0.45730542  0.25111971  0.62338984     1.13500
C421        C  0.37405504  0.24049657  0.70348307     1.04300
O422        O  0.31742706  0.25003285  0.67055768    -0.95400
O423        O  0.31205265  0.32973146  0.64948092    -0.91100
O424        O  0.31643884  0.36654998  0.61609453    -0.84300
C425        C  0.30394016  0.35101481  0.63247697     1.10900
O426        O  0.43044193  0.36052684  0.68544202    -0.97300
Zr427      Zr  0.40366043  0.36877067  0.65350785     1.88900
O428        O  0.36888019  0.44018871  0.61573024    -0.74000
O429        O  0.33832431  0.35099954  0.68970704    -0.53300
O430        O  0.38830334  0.40167879  0.68831564    -0.97900
O431        O  0.44129213  0.39988473  0.64575420    -0.55100
O432        O  0.39557397  0.44180194  0.64412883    -0.74500
C433        C  0.38246832  0.46012289  0.62958172     0.97800
O434        O  0.33643437  0.41470655  0.58152982    -0.63300
O435        O  0.42838216  0.26619095  0.56293646    -0.58100
O436        O  0.36675367  0.36635690  0.56482940    -0.94800
O437        O  0.40255586  0.33946282  0.55948932    -0.93200
O438        O  0.37809393  0.20495550  0.56829654    -0.93600
O439        O  0.33468726  0.24210904  0.56919490    -0.92400
C440        C  0.38399312  0.35678654  0.55194111     1.16700
H441        H  0.40831072  0.21627643  0.60307527     0.32600
H442        H  0.32691354  0.29305794  0.61485510     0.43500
H443        H  0.40497243  0.39547823  0.60590231     0.37000
H444        H  0.39159041  0.30577152  0.68456200     0.33500
H445        H  0.32397809  0.17408268  0.60178384     0.25300
H446        H  0.32415529  0.33947156  0.69682331     0.31200
H447        H  0.39556082  0.43037474  0.68916885     0.37100
H448        H  0.37350868  0.17436852  0.56855939     0.31600
H449        H  0.44367645  0.27831829  0.55928777     0.30500
H450        H  0.45292443  0.35209976  0.57632476     0.32100
H451        H  0.43867004  0.42156050  0.63358726     0.31100
H452        H  0.33229343  0.21234012  0.56375160     0.35100
H453        H  0.32504292  0.39671369  0.57343372     0.27800
H454        H  0.42516741  0.17599192  0.67914604     0.32100
H455        H  0.43385737  0.38999015  0.69081078     0.34900
H456        H  0.43163941  0.23715104  0.56900875     0.27500
H457        H  0.32728549  0.43300583  0.59200646     0.40400
H458        H  0.32383181  0.22100200  0.66803418     0.30500
H459        H  0.32231905  0.19753351  0.62552580     0.38100
H460        H  0.44998603  0.37676045  0.63798952     0.29900
H461        H  0.35024890  0.34754373  0.70168342     0.30000
H462        H  0.43568092  0.21999423  0.68703647     0.30300
Zr463      Zr  0.40425717  0.74312043  0.65250521     2.17500
O464        O  0.43556316  0.72162031  0.67790902    -0.52100
O465        O  0.39677360  0.66710910  0.64491951    -0.75300
O466        O  0.39192691  0.73118039  0.69262998    -0.82100
O467        O  0.44895160  0.77697549  0.60720076    -0.83800
O468        O  0.35721970  0.76263243  0.69773990    -0.79500
O469        O  0.44345541  0.73408596  0.63843047    -0.91100
O470        O  0.37188727  0.66176637  0.61503108    -0.77100
O471        O  0.36418929  0.73452876  0.64603073    -0.86600
O472        O  0.39919524  0.74044203  0.61180605    -0.86200
O473        O  0.38729823  0.80623601  0.66912710    -0.73000
O474        O  0.41871752  0.80957731  0.63707232    -0.85100
Zr475      Zr  0.35392249  0.86163527  0.60700584     2.26400
Zr476      Zr  0.34702233  0.79751877  0.66213195     2.06300
Zr477      Zr  0.41222678  0.80747944  0.59653572     2.10000
Zr478      Zr  0.35921708  0.73286397  0.60532936     1.78800
O479        O  0.44012090  0.86300137  0.58714266    -0.93900
O480        O  0.32398195  0.69512457  0.61548097    -0.41700
O481        O  0.37202267  0.79979741  0.59008247    -0.78400
O482        O  0.34039591  0.79346373  0.62149562    -0.97100
O483        O  0.36028212  0.86494154  0.64744397    -0.90400
O484        O  0.39440714  0.86981708  0.61245929    -0.93200
C485        C  0.38496361  0.64533077  0.63033145     1.00500
C486        C  0.45606183  0.75046289  0.62249660     1.13500
C487        C  0.37448558  0.74140333  0.70518259     1.04300
O488        O  0.31763655  0.74480502  0.67168207    -0.95400
O489        O  0.30985890  0.82645061  0.65293218    -0.91100
O490        O  0.31292778  0.86003124  0.61845472    -0.84300
C491        C  0.30109010  0.84586098  0.63566261     1.10900
O492        O  0.43029570  0.86797140  0.68255026    -0.97300
Zr493      Zr  0.40075489  0.87165573  0.65290223     1.88900
O494        O  0.36117577  0.93750420  0.61669252    -0.74000
O495        O  0.33616621  0.84639583  0.69292080    -0.53300
O496        O  0.38587245  0.90310479  0.68826167    -0.97900
O497        O  0.43641856  0.90802967  0.64261408    -0.55100
O498        O  0.38984218  0.94316431  0.64288896    -0.74500
C499        C  0.37485623  0.95950246  0.62950557     0.97800
O500        O  0.32950991  0.90311695  0.58114082    -0.63300
O501        O  0.42465929  0.76201073  0.56477208    -0.58100
O502        O  0.36286170  0.86321846  0.56559465    -0.94800
O503        O  0.39890684  0.83710009  0.56038254    -0.93200
O504        O  0.37211553  0.70347127  0.56870013    -0.93600
O505        O  0.33031850  0.73540867  0.57512612    -0.92400
C506        C  0.38027759  0.85402495  0.55281492     1.16700
H507        H  0.40776435  0.71680598  0.60537578     0.32600
H508        H  0.32458195  0.78752252  0.61785764     0.43500
H509        H  0.40001709  0.89531908  0.60489218     0.37000
H510        H  0.39066130  0.80879678  0.68530770     0.33500
H511        H  0.32378542  0.66947217  0.60544315     0.25300
H512        H  0.32554489  0.82956230  0.70270727     0.31200
H513        H  0.39209089  0.93266606  0.68862352     0.37100
H514        H  0.38861365  0.69699738  0.57076199     0.31600
H515        H  0.43829952  0.77670611  0.55833149     0.30500
H516        H  0.44959061  0.85043664  0.57471452     0.32100
H517        H  0.43335304  0.92187084  0.62760429     0.31100
H518        H  0.32922618  0.76617097  0.57099864     0.35100
H519        H  0.31737787  0.88309294  0.57592103     0.27800
H520        H  0.43072075  0.69409393  0.68491750     0.32100
H521        H  0.43181240  0.89752875  0.68859256     0.34900
H522        H  0.43085135  0.73564031  0.57194866     0.27500
H523        H  0.32145355  0.92419595  0.59098748     0.40400
H524        H  0.30841746  0.74159536  0.65749277     0.30500
H525        H  0.32683176  0.68356365  0.63107775     0.38100
H526        H  0.44732201  0.88462269  0.63897382     0.29900
H527        H  0.35019938  0.84956229  0.70235538     0.30000
H528        H  0.43556220  0.74260221  0.69069296     0.30300
Zr529      Zr  0.90109298  0.98684684  0.65123982     2.17500
O530        O  0.92904707  0.95219853  0.67640715    -0.52100
O531        O  0.89137734  0.91209546  0.64184828    -0.75300
O532        O  0.88822724  0.98084563  0.69176613    -0.82100
O533        O  0.94788038  0.01409450  0.60658152    -0.83800
O534        O  0.85554084  0.01891637  0.69667367    -0.79500
O535        O  0.94117040  0.97756055  0.63982882    -0.91100
O536        O  0.86204681  0.91052167  0.61615921    -0.77100
O537        O  0.86075600  0.98568574  0.64487627    -0.86600
O538        O  0.89597536  0.98435279  0.61047177    -0.86200
O539        O  0.88758420  0.05349591  0.66723790    -0.73000
O540        O  0.91896261  0.05011431  0.63547483    -0.85100
Zr541      Zr  0.85759195  0.11219716  0.60386573     2.26400
Zr542      Zr  0.84705936  0.05239700  0.66020771     2.06300
Zr543      Zr  0.91275581  0.04843316  0.59492267     2.10000
Zr544      Zr  0.85570013  0.98339155  0.60420005     1.78800
O545        O  0.94244899  0.10119719  0.58648115    -0.93900
O546        O  0.81712311  0.95822109  0.61338998    -0.41700
O547        O  0.87242871  0.04658822  0.58796219    -0.78400
O548        O  0.84036607  0.04778601  0.61954325    -0.97100
O549        O  0.86381112  0.11592511  0.64435966    -0.90400
O550        O  0.89817121  0.11429827  0.60996749    -0.93200
C551        C  0.87658505  0.89217725  0.62933723     1.00500
C552        C  0.95424831  0.99033825  0.62336000     1.13500
C553        C  0.87172385  0.99532317  0.70444827     1.04300
O554        O  0.81563791  0.00492508  0.67109942    -0.95400
O555        O  0.81198754  0.08915930  0.65043838    -0.91100
O556        O  0.81678615  0.11801475  0.61471533    -0.84300
C557        C  0.80448500  0.10800194  0.63236747     1.10900
O558        O  0.93443937  0.10899768  0.67930500    -0.97300
Zr559      Zr  0.90423057  0.11570768  0.65051287     1.88900
O560        O  0.86609698  0.18650937  0.61524573    -0.74000
O561        O  0.83886953  0.10626806  0.68945341    -0.53300
O562        O  0.89224323  0.14691002  0.68702403    -0.97900
O563        O  0.94054957  0.14868847  0.63946500    -0.55100
O564        O  0.89414916  0.18831889  0.64229241    -0.74500
C565        C  0.87957123  0.20649905  0.62914486     0.97800
O566        O  0.83560172  0.15387048  0.57599560    -0.63300
O567        O  0.92630783  0.00119046  0.56438355    -0.58100
O568        O  0.86784401  0.11296433  0.56246578    -0.94800
O569        O  0.90153449  0.07707007  0.55793677    -0.93200
O570        O  0.86795046  0.94303362  0.57053991    -0.93600
O571        O  0.82959176  0.99221083  0.57182412    -0.92400
C572        C  0.88430341  0.09790886  0.54995498     1.16700
H573        H  0.90318051  0.95919169  0.60403193     0.32600
H574        H  0.82429859  0.04440916  0.61598381     0.43500
H575        H  0.90495353  0.13882001  0.60236879     0.37000
H576        H  0.89122689  0.05646780  0.68332738     0.33500
H577        H  0.81475473  0.93284097  0.60343878     0.25300
H578        H  0.82441006  0.09662885  0.69677413     0.31200
H579        H  0.87774474  0.16218322  0.68359171     0.37100
H580        H  0.85645505  0.91981512  0.56891328     0.31600
H581        H  0.94145513  0.01290910  0.55984503     0.30500
H582        H  0.94752974  0.09445667  0.57064157     0.32100
H583        H  0.93684664  0.16782639  0.62639675     0.31100
H584        H  0.82542805  0.02301152  0.57201405     0.35100
H585        H  0.82247931  0.13547486  0.57156226     0.27800
H586        H  0.92074387  0.92876203  0.68436335     0.32100
H587        H  0.93740030  0.13853313  0.68483514     0.34900
H588        H  0.92982457  0.97342441  0.57186479     0.27500
H589        H  0.82870114  0.17779360  0.58483114     0.40400
H590        H  0.82175869  0.97553143  0.66908212     0.30500
H591        H  0.81834727  0.94626889  0.62910977     0.38100
H592        H  0.94949147  0.12501847  0.63253154     0.29900
H593        H  0.85075117  0.10220215  0.70142134     0.30000
H594        H  0.93259490  0.97348484  0.68854187     0.30300
Zr595      Zr  0.90327253  0.48924385  0.65052306     2.17500
O596        O  0.93412804  0.46410676  0.67552913    -0.52100
O597        O  0.89399211  0.41348334  0.64416368    -0.75300
O598        O  0.89178167  0.48064041  0.69102074    -0.82100
O599        O  0.94813429  0.51805259  0.60417996    -0.83800
O600        O  0.85836253  0.51665334  0.69702781    -0.79500
O601        O  0.94237833  0.47953254  0.63701818    -0.91100
O602        O  0.86590767  0.40860025  0.61729797    -0.77100
O603        O  0.86294925  0.48431949  0.64517754    -0.86600
O604        O  0.89735112  0.48416668  0.60996992    -0.86200
O605        O  0.88891508  0.55505201  0.66658843    -0.73000
O606        O  0.91892811  0.55326663  0.63345298    -0.85100
Zr607      Zr  0.85532095  0.60977613  0.60422326     2.26400
Zr608      Zr  0.84835849  0.54996282  0.66081887     2.06300
Zr609      Zr  0.91151918  0.54920520  0.59318437     2.10000
Zr610      Zr  0.85712378  0.48025185  0.60458467     1.78800
O611        O  0.94179858  0.59836362  0.58133510    -0.93900
O612        O  0.82029876  0.44764793  0.61422134    -0.41700
O613        O  0.87087269  0.54530288  0.58735722    -0.78400
O614        O  0.84080584  0.54365804  0.62037855    -0.97100
O615        O  0.86297179  0.61492034  0.64443721    -0.90400
O616        O  0.89606619  0.61428515  0.60858422    -0.93200
C617        C  0.88006603  0.39188162  0.63150364     1.00500
C618        C  0.95505216  0.49371750  0.62061615     1.13500
C619        C  0.87522313  0.49365439  0.70391399     1.04300
O620        O  0.81799798  0.50150864  0.67330583    -0.95400
O621        O  0.81197429  0.58204265  0.65178539    -0.91100
O622        O  0.81472178  0.61291667  0.61654301    -0.84300
C623        C  0.80315909  0.60094030  0.63439374     1.10900
O624        O  0.93459338  0.61173121  0.67682267    -0.97300
Zr625      Zr  0.90365774  0.61815349  0.64874116     1.88900
O626        O  0.86323697  0.68559426  0.61308533    -0.74000
O627        O  0.84005800  0.60304422  0.69036194    -0.53300
O628        O  0.89239485  0.65246521  0.68466919    -0.97900
O629        O  0.94032016  0.64913022  0.63707767    -0.55100
O630        O  0.89324431  0.69003093  0.63790504    -0.74500
C631        C  0.87785282  0.70693971  0.62512932     0.97800
O632        O  0.82495412  0.64457921  0.58227155    -0.63300
O633        O  0.91910942  0.49732842  0.56278116    -0.58100
O634        O  0.86612555  0.61656594  0.56311156    -0.94800
O635        O  0.90067960  0.58449767  0.55776222    -0.93200
O636        O  0.87218894  0.44556957  0.57020110    -0.93600
O637        O  0.82917855  0.48121984  0.57343563    -0.92400
C638        C  0.88333466  0.60577286  0.55034403     1.16700
H639        H  0.90508582  0.45939712  0.60367215     0.32600
H640        H  0.82473136  0.53919880  0.61731284     0.43500
H641        H  0.90217016  0.63884943  0.60044630     0.37000
H642        H  0.89284722  0.55811235  0.68258685     0.33500
H643        H  0.82009648  0.42002922  0.60580590     0.25300
H644        H  0.82836188  0.58920240  0.70026246     0.31200
H645        H  0.89786881  0.68244790  0.68334636     0.37100
H646        H  0.86264550  0.41955307  0.56820713     0.31600
H647        H  0.90633761  0.50090843  0.55171311     0.30500
H648        H  0.95194965  0.58112596  0.57128885     0.32100
H649        H  0.94021315  0.67863614  0.64336061     0.31100
H650        H  0.83155107  0.50922818  0.56574428     0.35100
H651        H  0.83257616  0.66661622  0.57265665     0.27800
H652        H  0.92823842  0.43798256  0.68324104     0.32100
H653        H  0.93708880  0.64094130  0.68301722     0.34900
H654        H  0.93273644  0.50875283  0.55464409     0.27500
H655        H  0.81941308  0.62247945  0.57140163     0.40400
H656        H  0.80766673  0.49877767  0.65987542     0.30500
H657        H  0.82176193  0.43931674  0.63058696     0.38100
H658        H  0.93922365  0.65291406  0.62022181     0.29900
H659        H  0.85404638  0.60396560  0.70000112     0.30000
H660        H  0.93554553  0.48586950  0.68785550     0.30300
Zr661      Zr  0.90510400  0.45240900  0.85350694     2.17500
O662        O  0.93569066  0.48007065  0.82891345    -0.52100
O663        O  0.89578428  0.52761433  0.86196019    -0.75300
O664        O  0.89217854  0.46669288  0.81393454    -0.82100
O665        O  0.95140006  0.41821338  0.89726434    -0.83800
O666        O  0.85723537  0.43590715  0.80889584    -0.79500
O667        O  0.94480252  0.46051346  0.86603433    -0.91100
O668        O  0.87002725  0.52930721  0.89107195    -0.77100
O669        O  0.86513884  0.45829232  0.86108899    -0.86600
O670        O  0.90127253  0.45191121  0.89441651    -0.86200
O671        O  0.88873787  0.38974152  0.83565044    -0.73000
O672        O  0.92071999  0.38522696  0.86682877    -0.85100
Zr673      Zr  0.85788528  0.32901515  0.89755530     2.26400
Zr674      Zr  0.84849574  0.39602110  0.84364639     2.06300
Zr675      Zr  0.91560795  0.38407319  0.90772721     2.10000
Zr676      Zr  0.86132284  0.45687813  0.90190825     1.78800
O677        O  0.94604667  0.33182681  0.91424273    -0.93900
O678        O  0.82447137  0.49197828  0.89585797    -0.41700
O679        O  0.87551850  0.38984548  0.91560923    -0.78400
O680        O  0.84285365  0.39694531  0.88459305    -0.97100
O681        O  0.86278521  0.32824079  0.85685037    -0.90400
O682        O  0.89814242  0.32230479  0.89077254    -0.93200
C683        C  0.88282054  0.54780741  0.87627633     1.00500
C684        C  0.95790578  0.44459826  0.88163919     1.13500
C685        C  0.87451693  0.45753948  0.80156154     1.04300
O686        O  0.81743896  0.44625433  0.83582753    -0.95400
O687        O  0.81250634  0.36159554  0.85277494    -0.91100
O688        O  0.81716589  0.32694804  0.88684530    -0.84300
C689        C  0.80480332  0.34029851  0.86997745     1.10900
O690        O  0.93064565  0.32527619  0.81854142    -0.97300
Zr691      Zr  0.90307695  0.32332159  0.85012535     1.88900
O692        O  0.86572181  0.25429537  0.88762950    -0.74000
O693        O  0.83895305  0.34960358  0.81134230    -0.53300
O694        O  0.88841600  0.29232015  0.81455400    -0.97900
O695        O  0.93951444  0.28913615  0.85964633    -0.55100
O696        O  0.89269943  0.25094556  0.85959402    -0.74500
C697        C  0.87877551  0.23347465  0.87377495     0.97800
O698        O  0.83364471  0.28976477  0.92465702    -0.63300
O699        O  0.92705518  0.42628454  0.94108251    -0.58100
O700        O  0.86835596  0.32289460  0.93812556    -0.94800
O701        O  0.90468816  0.34779812  0.94315265    -0.93200
O702        O  0.87747989  0.48677660  0.93704089    -0.93600
O703        O  0.83466349  0.45187403  0.93408177    -0.92400
C704        C  0.88623054  0.32992112  0.95054090     1.16700
H705        H  0.90954897  0.47560146  0.90120778     0.32600
H706        H  0.82695165  0.40117683  0.88857852     0.43500
H707        H  0.90417418  0.29644814  0.89764464     0.37000
H708        H  0.89175429  0.38873849  0.81936175     0.33500
H709        H  0.82593634  0.52026654  0.90346567     0.25300
H710        H  0.82705326  0.36553474  0.80269221     0.31200
H711        H  0.87408793  0.27732709  0.81897944     0.37100
H712        H  0.88227236  0.46151177  0.94617002     0.31600
H713        H  0.94151381  0.41283539  0.94638408     0.30500
H714        H  0.93847731  0.30675980  0.92144885     0.32100
H715        H  0.93625421  0.27079203  0.87316853     0.31100
H716        H  0.82927760  0.42174061  0.93386332     0.35100
H717        H  0.82148981  0.31003765  0.92948849     0.27800
H718        H  0.93068639  0.50916468  0.82427411     0.32100
H719        H  0.93376725  0.29488014  0.81466493     0.34900
H720        H  0.93181310  0.45453111  0.93492015     0.27500
H721        H  0.82561768  0.26745879  0.91557428     0.40400
H722        H  0.80820454  0.44686092  0.85012367     0.30500
H723        H  0.82419137  0.49872446  0.87922859     0.38100
H724        H  0.94922173  0.31258836  0.86573119     0.29900
H725        H  0.85265019  0.35037270  0.80125690     0.30000
H726        H  0.93532448  0.46275003  0.81465411     0.30300
Zr727      Zr  0.90489819  0.95359207  0.85483802     2.17500
O728        O  0.93535669  0.98718165  0.83226934    -0.52100
O729        O  0.89496943  0.02773845  0.86381853    -0.75300
O730        O  0.89378942  0.96694588  0.81475716    -0.82100
O731        O  0.95117982  0.91480525  0.89769702    -0.83800
O732        O  0.85758974  0.94141673  0.81000370    -0.79500
O733        O  0.94446894  0.95902604  0.86726373    -0.91100
O734        O  0.86774426  0.03042918  0.89161472    -0.77100
O735        O  0.86486729  0.95987782  0.86174031    -0.86600
O736        O  0.90034406  0.95264327  0.89564655    -0.86200
O737        O  0.88910514  0.89155187  0.83607487    -0.73000
O738        O  0.92062429  0.88668589  0.86810142    -0.85100
Zr739      Zr  0.85713724  0.82894869  0.89655675     2.26400
Zr740      Zr  0.84888843  0.89799929  0.84343204     2.06300
Zr741      Zr  0.91453884  0.88452848  0.90872729     2.10000
Zr742      Zr  0.86024908  0.95733841  0.90249265     1.78800
O743        O  0.94326675  0.82984187  0.91684297    -0.93900
O744        O  0.82265780  0.99049016  0.89770676    -0.41700
O745        O  0.87421151  0.88961254  0.91542664    -0.78400
O746        O  0.84235846  0.89757960  0.88424447    -0.97100
O747        O  0.86316161  0.82982680  0.85600445    -0.90400
O748        O  0.89763916  0.82301892  0.89093976    -0.93200
C749        C  0.88134891  0.04825517  0.87724320     1.00500
C750        C  0.95762246  0.94174882  0.88232300     1.13500
C751        C  0.87567867  0.96036706  0.80261021     1.04300
O752        O  0.81703465  0.94509367  0.83363329    -0.95400
O753        O  0.81252325  0.86520579  0.85163339    -0.91100
O754        O  0.81662199  0.82699496  0.88461687    -0.84300
C755        C  0.80450217  0.84228536  0.86800464     1.10900
O756        O  0.93143612  0.83520328  0.81937237    -0.97300
Zr757      Zr  0.90372496  0.82531263  0.85043899     1.88900
O758        O  0.86568437  0.75433495  0.88574010    -0.74000
O759        O  0.84162262  0.85154667  0.81061137    -0.53300
O760        O  0.89213433  0.79081000  0.81470163    -0.97900
O761        O  0.94031191  0.79266899  0.86088542    -0.55100
O762        O  0.89372907  0.75227893  0.85873549    -0.74500
C763        C  0.87929710  0.73402373  0.87206273     0.97800
O764        O  0.83241406  0.78923273  0.92300182    -0.63300
O765        O  0.92690965  0.92791061  0.94135276    -0.58100
O766        O  0.86625786  0.82280170  0.93748043    -0.94800
O767        O  0.90208878  0.84932321  0.94380243    -0.93200
O768        O  0.87773691  0.98630020  0.93722914    -0.93600
O769        O  0.83460198  0.95124528  0.93544656    -0.92400
C770        C  0.88359582  0.83066696  0.95049848     1.16700
H771        H  0.90852449  0.97623960  0.90260643     0.32600
H772        H  0.82640055  0.90147949  0.88802705     0.43500
H773        H  0.90358228  0.79708410  0.89781160     0.37000
H774        H  0.89231792  0.89076838  0.81981344     0.33500
H775        H  0.82375680  0.01840149  0.90576795     0.25300
H776        H  0.82975133  0.86686330  0.80161652     0.31200
H777        H  0.89091758  0.81421424  0.80326108     0.37100
H778        H  0.87283342  0.01668847  0.93772477     0.31600
H779        H  0.94088070  0.91341478  0.94715303     0.30500
H780        H  0.95277334  0.84211834  0.92931721     0.32100
H781        H  0.93717197  0.77580303  0.87497137     0.31100
H782        H  0.83253515  0.91997363  0.93765476     0.35100
H783        H  0.82011102  0.80940764  0.92757727     0.27800
H784        H  0.92837164  0.01365170  0.82524386     0.32100
H785        H  0.93757991  0.80625100  0.81603437     0.34900
H786        H  0.93261080  0.95511440  0.93466493     0.27500
H787        H  0.82465584  0.76700158  0.91362942     0.40400
H788        H  0.81014582  0.95310909  0.84858836     0.30500
H789        H  0.82194507  0.99821292  0.88121515     0.38100
H790        H  0.94990438  0.81691094  0.86619579     0.29900
H791        H  0.85564354  0.85380813  0.80107011     0.30000
H792        H  0.93823593  0.96794368  0.81942286     0.30300
Zr793      Zr  0.10395283  0.98897276  0.85058921     2.17500
O794        O  0.07405532  0.96064518  0.82541871    -0.52100
O795        O  0.11219279  0.91409723  0.86012282    -0.75300
O796        O  0.11714999  0.97466724  0.81111712    -0.82100
O797        O  0.05826538  0.02054595  0.89559210    -0.83800
O798        O  0.15042510  0.01053632  0.80499173    -0.79500
O799        O  0.06448286  0.98052455  0.86340629    -0.91100
O800        O  0.14102630  0.91191016  0.88634440    -0.77100
O801        O  0.14411075  0.98425330  0.85722416    -0.86600
O802        O  0.10862866  0.98807408  0.89133291    -0.86200
O803        O  0.11924908  0.05276827  0.83297508    -0.73000
O804        O  0.08780931  0.05475750  0.86494889    -0.85100
Zr805      Zr  0.15075185  0.11330537  0.89442969     2.26400
Zr806      Zr  0.15965581  0.04798946  0.84018563     2.06300
Zr807      Zr  0.09400335  0.05482752  0.90560009     2.10000
Zr808      Zr  0.14869152  0.98435619  0.89796530     1.78800
O809        O  0.06337302  0.10588421  0.91349193    -0.93900
O810        O  0.18626142  0.95196632  0.89172082    -0.41700
O811        O  0.13429596  0.05086011  0.91223411    -0.78400
O812        O  0.16604907  0.04574583  0.88093831    -0.97100
O813        O  0.14464586  0.11467032  0.85391732    -0.90400
O814        O  0.11019260  0.11800963  0.88881234    -0.93200
C815        C  0.12655585  0.89396949  0.87296437     1.00500
C816        C  0.05169862  0.99508768  0.87961237     1.13500
C817        C  0.13407484  0.98616823  0.79822198     1.04300
O818        O  0.19048139  0.99872271  0.83003743    -0.95400
O819        O  0.19595602  0.08004283  0.85015259    -0.91100
O820        O  0.19195311  0.11390959  0.88441128    -0.84300
C821        C  0.20426882  0.09976046  0.86761841     1.10900
O822        O  0.07657276  0.11134741  0.81684607    -0.97300
Zr823      Zr  0.10409104  0.11786294  0.84829529     1.88900
O824        O  0.14159637  0.18812342  0.88463094    -0.74000
O825        O  0.16905566  0.09812492  0.80944273    -0.53300
O826        O  0.11680162  0.15318659  0.81310449    -0.97900
O827        O  0.06662589  0.14701091  0.85857637    -0.55100
O828        O  0.11322607  0.19079949  0.85803839    -0.74500
C829        C  0.12753140  0.20871906  0.87161555     0.97800
O830        O  0.17171596  0.16332741  0.91892547    -0.63300
O831        O  0.08454604  0.01011871  0.93873854    -0.58100
O832        O  0.14241005  0.11159875  0.93572911    -0.94800
O833        O  0.10554036  0.08967982  0.94095652    -0.93200
O834        O  0.13212806  0.95187088  0.93227267    -0.93600
O835        O  0.17427977  0.98861378  0.93098789    -0.92400
C836        C  0.12461916  0.10488295  0.94836070     1.16700
H837        H  0.10068115  0.96394179  0.89806058     0.32600
H838        H  0.18189755  0.04085969  0.88488313     0.43500
H839        H  0.10391256  0.14327297  0.89611093     0.37000
H840        H  0.11589006  0.05390716  0.81675028     0.33500
H841        H  0.18547657  0.92372393  0.89951085     0.25300
H842        H  0.17927242  0.08180142  0.79902010     0.31200
H843        H  0.10807151  0.18041991  0.81244434     0.37100
H844        H  0.12801531  0.97644522  0.94222237     0.31600
H845        H  0.07074259  0.02359397  0.94555689     0.30500
H846        H  0.05387043  0.09196378  0.92549162     0.32100
H847        H  0.06787704  0.15500064  0.87498301     0.31100
H848        H  0.17876158  0.01922361  0.93179528     0.35100
H849        H  0.18245222  0.14554997  0.92802359     0.27800
H850        H  0.08011272  0.93334700  0.81918995     0.32100
H851        H  0.07052891  0.14062253  0.81415927     0.34900
H852        H  0.07894988  0.98264278  0.93231987     0.27500
H853        H  0.18161788  0.18039005  0.90851815     0.40400
H854        H  0.18334580  0.96988372  0.83030507     0.30500
H855        H  0.18658773  0.94497192  0.87512278     0.38100
H856        H  0.05618291  0.12195490  0.85850124     0.29900
H857        H  0.15459041  0.10146951  0.80070160     0.30000
H858        H  0.07332995  0.98044594  0.81210036     0.30300
Zr859      Zr  0.10456709  0.49042518  0.85417819     2.17500
O860        O  0.07319129  0.45951113  0.83188384    -0.52100
O861        O  0.11522211  0.41565685  0.86113754    -0.75300
O862        O  0.11539100  0.47969705  0.81376365    -0.82100
O863        O  0.05880256  0.52468018  0.89780211    -0.83800
O864        O  0.15021228  0.51078902  0.80828514    -0.79500
O865        O  0.06557843  0.48027625  0.86747874    -0.91100
O866        O  0.14318854  0.41213651  0.88818579    -0.77100
O867        O  0.14466179  0.48477252  0.86055505    -0.86600
O868        O  0.10937793  0.48950742  0.89495104    -0.86200
O869        O  0.11966522  0.55423017  0.83646307    -0.73000
O870        O  0.08869091  0.55653572  0.86854782    -0.85100
Zr871      Zr  0.15245694  0.61395576  0.89785553     2.26400
Zr872      Zr  0.16002011  0.54830587  0.84330017     2.06300
Zr873      Zr  0.09501666  0.55666154  0.90905019     2.10000
Zr874      Zr  0.14950574  0.48484315  0.90128678     1.78800
O875        O  0.06629583  0.61204734  0.91559313    -0.93900
O876        O  0.18802194  0.45565269  0.89671889    -0.41700
O877        O  0.13540485  0.55168594  0.91556269    -0.78400
O878        O  0.16698756  0.54608870  0.88397721    -0.97100
O879        O  0.14583425  0.61540643  0.85744211    -0.90400
O880        O  0.11185222  0.61939090  0.89248131    -0.93200
C881        C  0.12957781  0.39473195  0.87363440     1.00500
C882        C  0.05246789  0.49725827  0.88264710     1.13500
C883        C  0.13271899  0.48974949  0.80111331     1.04300
O884        O  0.19103081  0.49786141  0.83570518    -0.95400
O885        O  0.19619350  0.58177829  0.85091769    -0.91100
O886        O  0.19332986  0.61387025  0.88568962    -0.84300
C887        C  0.20507167  0.60083231  0.86814625     1.10900
O888        O  0.07606140  0.61221739  0.82234156    -0.97300
Zr889      Zr  0.10531652  0.61943366  0.85207365     1.88900
O890        O  0.14402125  0.68887674  0.88714210    -0.74000
O891        O  0.16952955  0.59566645  0.81132174    -0.53300
O892        O  0.11997801  0.65053895  0.81653232    -0.97900
O893        O  0.06985057  0.65671406  0.86202959    -0.55100
O894        O  0.11477157  0.69185159  0.86139996    -0.74500
C895        C  0.12971361  0.70941153  0.87433276     0.97800
O896        O  0.17680291  0.65878503  0.92214832    -0.63300
O897        O  0.08149971  0.51458892  0.94174490    -0.58100
O898        O  0.14301197  0.61663738  0.93932081    -0.94800
O899        O  0.10741042  0.58855077  0.94494406    -0.93200
O900        O  0.13298331  0.44902736  0.93466467    -0.93600
O901        O  0.17338866  0.49275096  0.93538620    -0.92400
C902        C  0.12576232  0.60681641  0.95229072     1.16700
H903        H  0.10131876  0.46549543  0.90171549     0.32600
H904        H  0.18297315  0.54141063  0.88737572     0.43500
H905        H  0.10585734  0.64485689  0.89980021     0.37000
H906        H  0.11609055  0.55625844  0.82031448     0.33500
H907        H  0.18794550  0.42860410  0.90566618     0.25300
H908        H  0.18056144  0.57913566  0.80187636     0.31200
H909        H  0.11119635  0.67743964  0.81442437     0.37100
H910        H  0.12536798  0.47225514  0.94342484     0.31600
H911        H  0.06716106  0.52892580  0.94670329     0.30500
H912        H  0.05849787  0.60340048  0.93000076     0.32100
H913        H  0.07324177  0.67264113  0.87635659     0.31100
H914        H  0.17871777  0.52291469  0.93486394     0.35100
H915        H  0.18950686  0.64005476  0.92735337     0.27800
H916        H  0.07997174  0.43665400  0.82222743     0.32100
H917        H  0.07272620  0.64178796  0.81708554     0.34900
H918        H  0.07637586  0.48687797  0.93521371     0.27500
H919        H  0.18409644  0.67981778  0.91165238     0.40400
H920        H  0.18337217  0.47090570  0.83099590     0.30500
H921        H  0.18877426  0.44644455  0.88045018     0.38100
H922        H  0.05921117  0.63369287  0.86690654     0.29900
H923        H  0.15541276  0.59686251  0.80187526     0.30000
H924        H  0.06847303  0.48232105  0.82101527     0.30300
Zr925      Zr  0.10315991  0.45057010  0.65148542     2.17500
O926        O  0.07381639  0.48046031  0.67682321    -0.52100
O927        O  0.11170128  0.52570706  0.64253053    -0.75300
O928        O  0.11694728  0.46264081  0.69110053    -0.82100
O929        O  0.05667570  0.41765965  0.60803986    -0.83800
O930        O  0.15175245  0.43147041  0.69547746    -0.79500
O931        O  0.06314813  0.45872531  0.63975595    -0.91100
O932        O  0.13866375  0.52918955  0.61437222    -0.77100
O933        O  0.14295607  0.45756528  0.64327581    -0.86600
O934        O  0.10673848  0.45116537  0.61057060    -0.86200
O935        O  0.11995026  0.38751602  0.66841510    -0.73000
O936        O  0.08758574  0.38352435  0.63790477    -0.85100
Zr937      Zr  0.15107026  0.32864013  0.60579526     2.26400
Zr938      Zr  0.15995308  0.39491144  0.65988640     2.06300
Zr939      Zr  0.09246002  0.38368420  0.59710055     2.10000
Zr940      Zr  0.14651495  0.45693674  0.60236633     1.78800
O941        O  0.06308522  0.32902909  0.59153142    -0.93900
O942        O  0.18471412  0.48779058  0.60645279    -0.41700
O943        O  0.13245158  0.38983110  0.58873712    -0.78400
O944        O  0.16539505  0.39691850  0.61899792    -0.97100
O945        O  0.14615043  0.32704828  0.64645921    -0.90400
O946        O  0.11075058  0.32167603  0.61291812    -0.93200
C947        C  0.12520410  0.54654853  0.62902521     1.00500
C948        C  0.05013338  0.44353452  0.62387992     1.13500
C949        C  0.13474387  0.45294922  0.70324809     1.04300
O950        O  0.19063892  0.44656099  0.66650009    -0.95400
O951        O  0.19633904  0.36404836  0.65037616    -0.91100
O952        O  0.19245680  0.32929767  0.61626234    -0.84300
C953        C  0.20459322  0.34360215  0.63322412     1.10900
O954        O  0.07863727  0.32449636  0.68531982    -0.97300
Zr955      Zr  0.10592280  0.32133279  0.65353376     1.88900
O956        O  0.14445403  0.25328010  0.61655981    -0.74000
O957        O  0.17018174  0.34642896  0.69112321    -0.53300
O958        O  0.12190886  0.28931745  0.68826601    -0.97900
O959        O  0.06940304  0.28656594  0.64500997    -0.55100
O960        O  0.11568684  0.24930155  0.64280692    -0.74500
C961        C  0.13050823  0.23208834  0.62948231     0.97800
O962        O  0.17500693  0.29105030  0.57785681    -0.63300
O963        O  0.07968409  0.42584950  0.56417658    -0.58100
O964        O  0.13897476  0.32188731  0.56539869    -0.94800
O965        O  0.10332488  0.35028423  0.56115906    -0.93200
O966        O  0.13010261  0.49176040  0.56869483    -0.93600
O967        O  0.16992770  0.44928212  0.56788819    -0.92400
C968        C  0.12105635  0.33084030  0.55326943     1.16700
H969        H  0.09829112  0.47487580  0.60406067     0.32600
H970        H  0.18118252  0.40205147  0.61488903     0.43500
H971        H  0.10469824  0.29600998  0.60584263     0.37000
H972        H  0.11711761  0.38562291  0.68473613     0.33500
H973        H  0.18405178  0.51526981  0.59791901     0.25300
H974        H  0.18191549  0.36214260  0.70008770     0.31200
H975        H  0.13557402  0.27313119  0.68305049     0.37100
H976        H  0.12291208  0.46815722  0.55987436     0.31600
H977        H  0.06383274  0.41590109  0.56113337     0.30500
H978        H  0.05020508  0.34418223  0.58396504     0.32100
H979        H  0.07170020  0.27210104  0.63003643     0.31100
H980        H  0.17949751  0.42359976  0.57081069     0.35100
H981        H  0.18726412  0.31151411  0.57345868     0.27800
H982        H  0.08040906  0.50737157  0.68301823     0.32100
H983        H  0.07697904  0.29456603  0.69081045     0.34900
H984        H  0.07782657  0.45549979  0.56996289     0.27500
H985        H  0.18291092  0.26815706  0.58661242     0.40400
H986        H  0.18292883  0.47485632  0.66691467     0.30500
H987        H  0.18575144  0.49615665  0.62282692     0.38100
H988        H  0.05874687  0.31044798  0.64157511     0.29900
H989        H  0.15652107  0.34582708  0.70126302     0.30000
H990        H  0.07284886  0.46072851  0.69014380     0.30300
Zr991      Zr  0.10236525  0.95182066  0.64717481     2.17500
O992        O  0.07461171  0.99360547  0.66926016    -0.52100
O993        O  0.11309165  0.02594975  0.63841150    -0.75300
O994        O  0.11329966  0.96002002  0.68792960    -0.82100
O995        O  0.05527591  0.91460645  0.60453216    -0.83800
O996        O  0.14823683  0.92913019  0.69274617    -0.79500
O997        O  0.06216319  0.95569869  0.63616111    -0.91100
O998        O  0.13991108  0.02873678  0.61021269    -0.77100
O999        O  0.14244072  0.95610616  0.64027457    -0.86600
O1000       O  0.10706130  0.95264108  0.60626293    -0.86200
O1001       O  0.11712563  0.88745354  0.66475349    -0.73000
O1002       O  0.08578940  0.88646612  0.63273592    -0.85100
Zr1003     Zr  0.14845865  0.82615226  0.60323576     2.26400
Zr1004     Zr  0.15744487  0.89230610  0.65738522     2.06300
Zr1005     Zr  0.09190550  0.88602941  0.59215830     2.10000
Zr1006     Zr  0.14728053  0.95537587  0.59955532     1.78800
O1007       O  0.06241615  0.83393414  0.58199026    -0.93900
O1008       O  0.18438750  0.98788282  0.60795149    -0.41700
O1009       O  0.13230749  0.88905050  0.58530297    -0.78400
O1010       O  0.16403263  0.89356688  0.61663957    -0.97100
O1011       O  0.14211448  0.82570994  0.64373738    -0.90400
O1012       O  0.10782148  0.82267868  0.60882121    -0.93200
C1013       C  0.12667200  0.04653089  0.62492197     1.00500
C1014       C  0.04887589  0.93965590  0.62080413     1.13500
C1015       C  0.13076747  0.94970878  0.70035057     1.04300
O1016       O  0.18729884  0.94458671  0.66604838    -0.95400
O1017       O  0.19338102  0.85905206  0.64833756    -0.91100
O1018       O  0.18972036  0.82447206  0.61417830    -0.84300
C1019       C  0.20178001  0.83857748  0.63123344     1.10900
O1020       O  0.07538806  0.83224922  0.68171661    -0.97300
Zr1021     Zr  0.10152860  0.82313627  0.64926696     1.88900
O1022       O  0.13854698  0.75195159  0.61439528    -0.74000
O1023       O  0.16873765  0.84448080  0.68850260    -0.53300
O1024       O  0.11607766  0.78340608  0.68229931    -0.97900
O1025       O  0.06291108  0.79803462  0.64037489    -0.55100
O1026       O  0.10754038  0.75035083  0.63795234    -0.74500
C1027       C  0.12293518  0.73190289  0.62592540     0.97800
O1028       O  0.17078139  0.77944422  0.57807369    -0.63300
O1029       O  0.08009275  0.93438192  0.56144726    -0.58100
O1030       O  0.13899339  0.82242854  0.56204566    -0.94800
O1031       O  0.10375906  0.85179762  0.55666430    -0.93200
O1032       O  0.13359044  0.98638208  0.56365070    -0.93600
O1033       O  0.17574824  0.94782988  0.56911877    -0.92400
C1034       C  0.12176015  0.83242358  0.54923866     1.16700
H1035       H  0.09925939  0.97686034  0.59944355     0.32600
H1036       H  0.17995153  0.89774367  0.61282675     0.43500
H1037       H  0.10130279  0.79767323  0.60148072     0.37000
H1038       H  0.11372222  0.88492552  0.68093228     0.33500
H1039       H  0.18483474  0.01439993  0.59856704     0.25300
H1040       H  0.18047936  0.86074481  0.69719271     0.31200
H1041       H  0.10598423  0.75796006  0.68369121     0.37100
H1042       H  0.14180195  0.01409373  0.56230221     0.31600
H1043       H  0.09448749  0.94159909  0.55325417     0.30500
H1044       H  0.05147101  0.84998185  0.57221657     0.32100
H1045       H  0.06111097  0.77099188  0.64912410     0.31100
H1046       H  0.17767420  0.91645744  0.56726290     0.35100
H1047       H  0.18397850  0.79683710  0.57280232     0.27800
H1048       H  0.08347656  0.01674288  0.67681219     0.32100
H1049       H  0.07102121  0.80296280  0.68666571     0.34900
H1050       H  0.07152390  0.91601377  0.55053374     0.27500
H1051       H  0.17755291  0.75734692  0.58825538     0.40400
H1052       H  0.19759426  0.94422665  0.65249541     0.30500
H1053       H  0.18302072  0.99824733  0.62398015     0.38100
H1054       H  0.06359984  0.78892045  0.62408980     0.29900
H1055       H  0.15525748  0.84344364  0.69886928     0.30000
H1056       H  0.06946355  0.97465674  0.68192882     0.30300
Zr1057     Zr  0.35375297  0.08502598  0.10586242     2.17500
O1058       O  0.32627989  0.04178665  0.08417250    -0.52100
O1059       O  0.36018004  0.00939146  0.11587319    -0.75300
O1060       O  0.36400441  0.07720545  0.06513363    -0.82100
O1061       O  0.30891083  0.12399786  0.14912847    -0.83800
O1062       O  0.40009551  0.10308416  0.05976266    -0.79500
O1063       O  0.31265026  0.09278210  0.11410466    -0.91100
O1064       O  0.38781240  0.00440331  0.14306780    -0.77100
O1065       O  0.39404141  0.07712935  0.11171679    -0.86600
O1066       O  0.35948793  0.08190489  0.14656937    -0.86200
O1067       O  0.37065126  0.14829866  0.08866459    -0.73000
O1068       O  0.33964752  0.15147555  0.12126266    -0.85100
Zr1069     Zr  0.40351975  0.20428936  0.15035814     2.26400
Zr1070     Zr  0.41114192  0.13972944  0.09504843     2.06300
Zr1071     Zr  0.34614104  0.14878878  0.16174139     2.10000
Zr1072     Zr  0.39983386  0.07602777  0.15232251     1.78800
O1073       O  0.31735221  0.20140173  0.17296570    -0.93900
O1074       O  0.43516937  0.03828098  0.14268970    -0.41700
O1075       O  0.38645271  0.14217880  0.16783040    -0.78400
O1076       O  0.41797480  0.13714478  0.13572386    -0.97100
O1077       O  0.39740909  0.20708389  0.10984410    -0.90400
O1078       O  0.36310586  0.21161794  0.14537139    -0.93200
C1079       C  0.37305926  0.98764088  0.12955594     1.00500
C1080       C  0.30045421  0.10661790  0.13100513     1.13500
C1081       C  0.38167197  0.08494683  0.05250613     1.04300
O1082       O  0.44061298  0.08660361  0.08663629    -0.95400
O1083       O  0.44826777  0.17101280  0.10395830    -0.91100
O1084       O  0.44316871  0.21035792  0.13652803    -0.84300
C1085       C  0.45560093  0.19555974  0.12006589     1.10900
O1086       O  0.32828144  0.20989476  0.07438137    -0.97300
Zr1087     Zr  0.35693634  0.21378899  0.10490718     1.88900
O1088       O  0.39527158  0.27999532  0.14243416    -0.74000
O1089       O  0.42259762  0.18613216  0.06334768    -0.53300
O1090       O  0.37191189  0.24709800  0.07004575    -0.97900
O1091       O  0.32024410  0.24695052  0.11448314    -0.55100
O1092       O  0.36609922  0.28570217  0.11677736    -0.74500
C1093       C  0.38097051  0.30191166  0.13037876     0.97800
O1094       O  0.42906294  0.24067814  0.17731227    -0.63300
O1095       O  0.33397346  0.09876749  0.19158647    -0.58100
O1096       O  0.39512509  0.20669574  0.19166933    -0.94800
O1097       O  0.35885739  0.18156039  0.19746452    -0.93200
O1098       O  0.38691015  0.04879112  0.18942264    -0.93600
O1099       O  0.43037680  0.08065887  0.18082408    -0.92400
C1100       C  0.37761490  0.19876064  0.20450029     1.16700
H1101       H  0.35122808  0.05817187  0.15340526     0.32600
H1102       H  0.43402648  0.13323334  0.13922488     0.43500
H1103       H  0.35727788  0.23676577  0.15307273     0.37000
H1104       H  0.36713185  0.15169484  0.07257007     0.33500
H1105       H  0.43399736  0.01032844  0.15070713     0.25300
H1106       H  0.43160549  0.16735827  0.05298660     0.31200
H1107       H  0.36605052  0.27690392  0.07035214     0.37100
H1108       H  0.39868746  0.02770912  0.19418729     0.31600
H1109       H  0.34815160  0.09209028  0.20024062     0.30500
H1110       H  0.30806615  0.18684576  0.18491419     0.32100
H1111       H  0.32076573  0.27574822  0.10730084     0.31100
H1112       H  0.43237962  0.11180235  0.18352315     0.35100
H1113       H  0.44217836  0.22102317  0.17982868     0.27800
H1114       H  0.33512570  0.01733735  0.07787009     0.32100
H1115       H  0.32674001  0.23945713  0.06832108     0.34900
H1116       H  0.32471177  0.11627901  0.20233926     0.27500
H1117       H  0.43553370  0.26545822  0.16882204     0.40400
H1118       H  0.43222139  0.05918560  0.08483939     0.30500
H1119       H  0.43363799  0.03109414  0.12618737     0.38100
H1120       H  0.32100445  0.25255206  0.13121657     0.29900
H1121       H  0.40821365  0.19192212  0.05484771     0.30000
H1122       H  0.32201499  0.05912355  0.07055559     0.30300
Zr1123     Zr  0.35748469  0.57923173  0.10625162     2.17500
O1124       O  0.33043244  0.53245853  0.08625336    -0.52100
O1125       O  0.36859931  0.50590178  0.11646296    -0.75300
O1126       O  0.36699290  0.57258025  0.06531711    -0.82100
O1127       O  0.31275271  0.60849090  0.15192436    -0.83800
O1128       O  0.40015168  0.60898094  0.05850149    -0.79500
O1129       O  0.31672144  0.57784788  0.11675913    -0.91100
O1130       O  0.39996205  0.50600807  0.13954729    -0.77100
O1131       O  0.39827529  0.58173891  0.10913653    -0.86600
O1132       O  0.36611077  0.57602496  0.14635020    -0.86200
O1133       O  0.36861146  0.64649713  0.08877492    -0.73000
O1134       O  0.33999941  0.64097074  0.12331110    -0.85100
Zr1135     Zr  0.40142843  0.70903833  0.14902236     2.26400
Zr1136     Zr  0.40965587  0.64915713  0.09273909     2.06300
Zr1137     Zr  0.34934065  0.63858773  0.16309236     2.10000
Zr1138     Zr  0.40680191  0.58000932  0.14919959     1.78800
O1139       O  0.31874391  0.68249897  0.17924960    -0.93900
O1140       O  0.44405026  0.55601920  0.13507257    -0.41700
O1141       O  0.39012005  0.64222292  0.16646086    -0.78400
O1142       O  0.41912300  0.64596666  0.13274143    -0.97100
O1143       O  0.39213874  0.71155485  0.10912777    -0.90400
O1144       O  0.36052306  0.70609311  0.14667872    -0.93200
C1145       C  0.38442277  0.48679217  0.12796651     1.00500
C1146       C  0.30459653  0.58921846  0.13424573     1.13500
C1147       C  0.38329360  0.58540985  0.05204670     1.04300
O1148       O  0.44266110  0.60736547  0.08018758    -0.95400
O1149       O  0.44517628  0.68763794  0.10054324    -0.91100
O1150       O  0.44084966  0.72115980  0.13503652    -0.84300
C1151       C  0.45285075  0.71026528  0.11733097     1.10900
O1152       O  0.31811325  0.69537950  0.08194949    -0.97300
Zr1153     Zr  0.35127206  0.70734255  0.10673389     1.88900
O1154       O  0.38782717  0.78210911  0.14020361    -0.74000
O1155       O  0.41282977  0.70127893  0.06164012    -0.53300
O1156       O  0.35583334  0.73905655  0.06871982    -0.97900
O1157       O  0.31572354  0.73498114  0.12333559    -0.55100
O1158       O  0.35977524  0.78156902  0.11329081    -0.74500
C1159       C  0.37356155  0.80119516  0.12667180     0.97800
O1160       O  0.42771809  0.75535622  0.17024298    -0.63300
O1161       O  0.34313454  0.58266333  0.19176863    -0.58100
O1162       O  0.39477866  0.70812553  0.19101809    -0.94800
O1163       O  0.36219106  0.67051120  0.19850894    -0.93200
O1164       O  0.39969718  0.54578582  0.18619208    -0.93600
O1165       O  0.43690728  0.58907002  0.17779059    -0.92400
C1166       C  0.37933588  0.69338870  0.20483323     1.16700
H1167       H  0.35999793  0.55035584  0.15337014     0.32600
H1168       H  0.43545955  0.64490862  0.13527263     0.43500
H1169       H  0.35354221  0.72959602  0.15491245     0.37000
H1170       H  0.36396691  0.64861627  0.07290311     0.33500
H1171       H  0.44757753  0.52996521  0.14415631     0.25300
H1172       H  0.42672686  0.69256232  0.05301827     0.31200
H1173       H  0.37169045  0.75047415  0.06858931     0.37100
H1174       H  0.38810979  0.52327767  0.18311136     0.31600
H1175       H  0.35748465  0.58204312  0.20087111     0.30500
H1176       H  0.31395625  0.66732274  0.19342977     0.32100
H1177       H  0.32025043  0.76008607  0.13270634     0.31100
H1178       H  0.44083307  0.61996282  0.17712253     0.35100
H1179       H  0.41789075  0.77598363  0.17866285     0.27800
H1180       H  0.33987113  0.51017018  0.07866415     0.32100
H1181       H  0.31151205  0.72414547  0.07901344     0.34900
H1182       H  0.33153095  0.59470629  0.20239930     0.27500
H1183       H  0.43474817  0.73713000  0.18227568     0.40400
H1184       H  0.44942636  0.62410689  0.06739375     0.30500
H1185       H  0.44103940  0.54526087  0.11934811     0.38100
H1186       H  0.31099104  0.71303025  0.13471024     0.29900
H1187       H  0.39993152  0.69455424  0.05116405     0.30000
H1188       H  0.32406020  0.54981723  0.07350391     0.30300
Zr1189     Zr  0.35338558  0.35211045  0.39969282     2.17500
O1190       O  0.32390363  0.39178084  0.42058624    -0.52100
O1191       O  0.36215200  0.42736082  0.38979790    -0.75300
O1192       O  0.36459793  0.36328747  0.44033807    -0.82100
O1193       O  0.30748955  0.30333335  0.35890806    -0.83800
O1194       O  0.40098873  0.33867419  0.44453684    -0.79500
O1195       O  0.31243720  0.34614316  0.39025285    -0.91100
O1196       O  0.39142742  0.42965884  0.36411767    -0.77100
O1197       O  0.39334827  0.35976568  0.39230965    -0.86600
O1198       O  0.35784845  0.35124262  0.35874914    -0.86200
O1199       O  0.37046911  0.29024672  0.41795818    -0.73000
O1200       O  0.33951647  0.28392020  0.38614716    -0.85100
Zr1201     Zr  0.40253520  0.22930222  0.35669073     2.26400
Zr1202     Zr  0.41058823  0.29873991  0.41013755     2.06300
Zr1203     Zr  0.34484685  0.28246033  0.34546182     2.10000
Zr1204     Zr  0.39792403  0.35744646  0.35155151     1.78800
O1205       O  0.31726486  0.22732675  0.33456425    -0.93900
O1206       O  0.43541166  0.39161773  0.35479157    -0.41700
O1207       O  0.38483501  0.28951734  0.33822902    -0.78400
O1208       O  0.41684954  0.29801827  0.36929381    -0.97100
O1209       O  0.39718686  0.23009666  0.39731654    -0.90400
O1210       O  0.36239240  0.22132407  0.36294053    -0.93200
C1211       C  0.37698754  0.44776388  0.37747454     1.00500
C1212       C  0.29986996  0.32631718  0.37545401     1.13500
C1213       C  0.38288954  0.35683729  0.45241027     1.04300
O1214       O  0.44144293  0.35052756  0.41540977    -0.95400
O1215       O  0.44688872  0.26504970  0.40271570    -0.91100
O1216       O  0.44188716  0.22364027  0.37089918    -0.84300
C1217       C  0.45412998  0.23940876  0.38717743     1.10900
O1218       O  0.32715867  0.22979627  0.43283624    -0.97300
Zr1219     Zr  0.35697577  0.22306290  0.40357169     1.88900
O1220       O  0.39468602  0.15435163  0.36659577    -0.74000
O1221       O  0.42104003  0.25540183  0.44338236    -0.53300
O1222       O  0.37032824  0.19238190  0.43975128    -0.97900
O1223       O  0.32164188  0.18583065  0.39315226    -0.55100
O1224       O  0.36883073  0.15087922  0.39568557    -0.74500
C1225       C  0.38237985  0.13344856  0.38118626     0.97800
O1226       O  0.42918226  0.19501145  0.32999192    -0.63300
O1227       O  0.33111128  0.33184209  0.31605752    -0.58100
O1228       O  0.39302083  0.22237777  0.31566497    -0.94800
O1229       O  0.35750981  0.25021209  0.30962770    -0.93200
O1230       O  0.37933624  0.39092638  0.31857664    -0.93600
O1231       O  0.42179564  0.34996818  0.31735455    -0.92400
C1232       C  0.37587273  0.23154056  0.30256142     1.16700
H1233       H  0.34926184  0.37437332  0.35179269     0.32600
H1234       H  0.43289255  0.30143711  0.36557129     0.43500
H1235       H  0.35671829  0.19526357  0.35602546     0.37000
H1236       H  0.36736042  0.28846289  0.43422089     0.33500
H1237       H  0.43370140  0.41970949  0.34700003     0.25300
H1238       H  0.43092978  0.27428252  0.45282758     0.31200
H1239       H  0.36887615  0.21565340  0.45123147     0.37100
H1240       H  0.38573426  0.42033708  0.31794336     0.31600
H1241       H  0.34362924  0.33308660  0.30454941     0.30500
H1242       H  0.30597280  0.24223954  0.32467423     0.32100
H1243       H  0.32274049  0.15737303  0.40064236     0.31100
H1244       H  0.41400495  0.32792799  0.30789660     0.35100
H1245       H  0.44197554  0.21551449  0.32767817     0.27800
H1246       H  0.33186816  0.41686452  0.42733370     0.32100
H1247       H  0.32497906  0.20056049  0.43915256     0.34900
H1248       H  0.31856901  0.31617446  0.30823254     0.27500
H1249       H  0.43595199  0.17039389  0.33836048     0.40400
H1250       H  0.43363825  0.37835435  0.41787496     0.30500
H1251       H  0.43689753  0.39882300  0.37130177     0.38100
H1252       H  0.32292039  0.17962121  0.37651762     0.29900
H1253       H  0.40668899  0.25255117  0.45237626     0.30000
H1254       H  0.31980638  0.37350088  0.43391065     0.30300
Zr1255     Zr  0.35628981  0.85305005  0.39983361     2.17500
O1256       O  0.32740130  0.89405212  0.42088679    -0.52100
O1257       O  0.36552285  0.92767651  0.38953193    -0.75300
O1258       O  0.36610653  0.86402065  0.44061533    -0.82100
O1259       O  0.31042119  0.80722354  0.35829815    -0.83800
O1260       O  0.40136774  0.83530483  0.44673370    -0.79500
O1261       O  0.31539573  0.84902272  0.38997847    -0.91100
O1262       O  0.39214805  0.93039289  0.36113485    -0.77100
O1263       O  0.39654700  0.85980936  0.39338563    -0.86600
O1264       O  0.36150385  0.85263342  0.35905029    -0.86200
O1265       O  0.37262494  0.79068106  0.41828935    -0.73000
O1266       O  0.34209372  0.78525257  0.38622364    -0.85100
Zr1267     Zr  0.40552024  0.72955400  0.35723025     2.26400
Zr1268     Zr  0.41299571  0.79825605  0.41167585     2.06300
Zr1269     Zr  0.34800831  0.78445413  0.34569253     2.10000
Zr1270     Zr  0.40176670  0.85743468  0.35260735     1.78800
O1271       O  0.32095581  0.72795458  0.33549871    -0.93900
O1272       O  0.43782348  0.89558424  0.35835511    -0.41700
O1273       O  0.38828514  0.79028400  0.33851777    -0.78400
O1274       O  0.41970649  0.79782916  0.37092486    -0.97100
O1275       O  0.39961513  0.72996455  0.39792469    -0.90400
O1276       O  0.36513939  0.72279975  0.36309948    -0.93200
C1277       C  0.37861421  0.94826534  0.37546489     1.00500
C1278       C  0.30276317  0.83032072  0.37483541     1.13500
C1279       C  0.38337220  0.85536942  0.45364219     1.04300
O1280       O  0.44187566  0.85385122  0.41710419    -0.95400
O1281       O  0.44881474  0.76128870  0.40477071    -0.91100
O1282       O  0.44531078  0.72581865  0.37069706    -0.84300
C1283       C  0.45691320  0.73887018  0.38818129     1.10900
O1284       O  0.33007415  0.72966399  0.43348356    -0.97300
Zr1285     Zr  0.35933980  0.72391539  0.40362536     1.88900
O1286       O  0.39707824  0.65403128  0.36625676    -0.74000
O1287       O  0.42627771  0.75763522  0.44493641    -0.53300
O1288       O  0.37454795  0.69870650  0.44024253    -0.97900
O1289       O  0.32330998  0.68720864  0.39534030    -0.55100
O1290       O  0.36993707  0.65136337  0.39426164    -0.74500
C1291       C  0.38364779  0.63347661  0.38000402     0.97800
O1292       O  0.43607636  0.69608744  0.33479725    -0.63300
O1293       O  0.33322804  0.83224284  0.31597105    -0.58100
O1294       O  0.39557801  0.72077088  0.31605784    -0.94800
O1295       O  0.36134257  0.75323061  0.31009842    -0.93200
O1296       O  0.38597563  0.88387232  0.31651676    -0.93600
O1297       O  0.43059337  0.84821375  0.32266490    -0.92400
C1298       C  0.37862298  0.73160296  0.30298449     1.16700
H1299       H  0.35326464  0.87598261  0.35182750     0.32600
H1300       H  0.43581756  0.80155125  0.36766196     0.43500
H1301       H  0.35921646  0.69698665  0.35610934     0.37000
H1302       H  0.36887806  0.78852342  0.43437716     0.33500
H1303       H  0.43608414  0.92292246  0.34983531     0.25300
H1304       H  0.43573161  0.77811881  0.45386720     0.31200
H1305       H  0.37113004  0.66760601  0.44058474     0.37100
H1306       H  0.39722408  0.90538133  0.31102198     0.31600
H1307       H  0.34515832  0.83255556  0.30383944     0.30500
H1308       H  0.30906070  0.74238026  0.32612645     0.32100
H1309       H  0.32468660  0.65877650  0.40281944     0.31100
H1310       H  0.43439763  0.81726839  0.32309194     0.35100
H1311       H  0.42905409  0.67066326  0.32741429     0.27800
H1312       H  0.33560993  0.91897723  0.42752153     0.32100
H1313       H  0.32927971  0.70104052  0.44084331     0.34900
H1314       H  0.32020340  0.81645775  0.30904492     0.27500
H1315       H  0.43942290  0.71621289  0.32202964     0.40400
H1316       H  0.45336831  0.84866285  0.40486921     0.30500
H1317       H  0.43764266  0.90403404  0.37475614     0.38100
H1318       H  0.32384188  0.68092332  0.37866708     0.29900
H1319       H  0.41241951  0.75292920  0.45447500     0.30000
H1320       H  0.32304269  0.87612068  0.43426728     0.30300
Zr1321     Zr  0.65162469  0.35835107  0.10662133     2.17500
O1322       O  0.67900722  0.40148486  0.08478967    -0.52100
O1323       O  0.64355829  0.43307664  0.11784883    -0.75300
O1324       O  0.63962133  0.36794827  0.06626347    -0.82100
O1325       O  0.69776617  0.31165932  0.14673256    -0.83800
O1326       O  0.60368907  0.34091943  0.06149021    -0.79500
O1327       O  0.69321781  0.35048014  0.11405800    -0.91100
O1328       O  0.61504011  0.43476392  0.14425651    -0.77100
O1329       O  0.61142808  0.36385277  0.11376697    -0.86600
O1330       O  0.64674259  0.35876349  0.14751706    -0.86200
O1331       O  0.63492078  0.29557227  0.08881655    -0.73000
O1332       O  0.66625083  0.29134661  0.12055992    -0.85100
Zr1333     Zr  0.60400757  0.23365679  0.15058135     2.26400
Zr1334     Zr  0.59462997  0.30169410  0.09650485     2.06300
Zr1335     Zr  0.66072796  0.29114335  0.16114483     2.10000
Zr1336     Zr  0.60649075  0.36225814  0.15446217     1.78800
O1337       O  0.68795342  0.23657517  0.17362339    -0.93900
O1338       O  0.56982708  0.39720060  0.14689597    -0.41700
O1339       O  0.62058224  0.29554573  0.16845582    -0.78400
O1340       O  0.58870817  0.30137739  0.13736675    -0.97100
O1341       O  0.60924001  0.23433396  0.10992515    -0.90400
O1342       O  0.64434554  0.22828541  0.14419103    -0.93200
C1343       C  0.62946282  0.45325077  0.13109698     1.00500
C1344       C  0.70584238  0.33252851  0.12955130     1.13500
C1345       C  0.62177982  0.35974685  0.05389003     1.04300
O1346       O  0.56409742  0.35278787  0.08836318    -0.95400
O1347       O  0.55849818  0.26751608  0.10575249    -0.91100
O1348       O  0.56406510  0.22677920  0.13778273    -0.84300
C1349       C  0.55139694  0.24212854  0.12159967     1.10900
O1350       O  0.67479874  0.23621178  0.07018063    -0.97300
Zr1351     Zr  0.64949708  0.22956175  0.10346491     1.88900
O1352       O  0.61340665  0.15886673  0.14078937    -0.74000
O1353       O  0.58489641  0.25326805  0.06512824    -0.53300
O1354       O  0.63379318  0.19413249  0.06957698    -0.97900
O1355       O  0.68791826  0.20188039  0.11087591    -0.55100
O1356       O  0.64199880  0.15668378  0.11421425    -0.74500
C1357       C  0.62768625  0.13867762  0.12777296     0.97800
O1358       O  0.57487247  0.19823978  0.17407900    -0.63300
O1359       O  0.67488610  0.34133096  0.19002830    -0.58100
O1360       O  0.61469562  0.22827643  0.19165490    -0.94800
O1361       O  0.64831180  0.26293013  0.19768998    -0.93200
O1362       O  0.62173572  0.39118109  0.19021860    -0.93600
O1363       O  0.57945967  0.35656009  0.18629644    -0.92400
C1364       C  0.63119156  0.24093496  0.20483993     1.16700
H1365       H  0.65482431  0.38243144  0.15450853     0.32600
H1366       H  0.57270081  0.30442533  0.14129738     0.43500
H1367       H  0.65078892  0.20295724  0.15123489     0.37000
H1368       H  0.63802262  0.29323752  0.07258002     0.33500
H1369       H  0.56919879  0.42155144  0.15780952     0.25300
H1370       H  0.57036586  0.26474784  0.05880356     0.31200
H1371       H  0.61961062  0.17972693  0.07493624     0.37100
H1372       H  0.62747753  0.36581678  0.19871352     0.31600
H1373       H  0.68352963  0.32339202  0.20107801     0.30500
H1374       H  0.70031670  0.25266664  0.18149352     0.32100
H1375       H  0.68806742  0.17289675  0.10392392     0.31100
H1376       H  0.57953812  0.32573296  0.19043376     0.35100
H1377       H  0.58278030  0.17417487  0.18186611     0.27800
H1378       H  0.67037218  0.42712639  0.07967764     0.32100
H1379       H  0.67811921  0.20649442  0.06516790     0.34900
H1380       H  0.68682716  0.35858659  0.18218470     0.27500
H1381       H  0.57102809  0.21880480  0.18648263     0.40400
H1382       H  0.57108198  0.38136159  0.09087186     0.30500
H1383       H  0.57172818  0.41090864  0.13164835     0.38100
H1384       H  0.68836250  0.19663520  0.12765892     0.29900
H1385       H  0.59646381  0.25894361  0.05301659     0.30000
H1386       H  0.68205740  0.38517758  0.07050373     0.30300
Zr1387     Zr  0.65092009  0.85823285  0.10596826     2.17500
O1388       O  0.67919697  0.89926356  0.08407706    -0.52100
O1389       O  0.64217985  0.93313052  0.11489003    -0.75300
O1390       O  0.64035342  0.86601379  0.06532217    -0.82100
O1391       O  0.69649535  0.81554538  0.14875645    -0.83800
O1392       O  0.60527584  0.83593247  0.05953565    -0.79500
O1393       O  0.69198976  0.85365733  0.11569633    -0.91100
O1394       O  0.61030677  0.93609616  0.13724924    -0.77100
O1395       O  0.61034000  0.86256176  0.11091962    -0.86600
O1396       O  0.64432096  0.86218094  0.14649134    -0.86200
O1397       O  0.63580817  0.79377994  0.08867583    -0.73000
O1398       O  0.66591996  0.79340442  0.12211388    -0.85100
Zr1399     Zr  0.60281091  0.73500708  0.15016130     2.26400
Zr1400     Zr  0.59509140  0.79805338  0.09458600     2.06300
Zr1401     Zr  0.65859492  0.79649209  0.16236421     2.10000
Zr1402     Zr  0.60378251  0.86447487  0.15134448     1.78800
O1403       O  0.68839353  0.75287036  0.18014575    -0.93900
O1404       O  0.56538000  0.89100855  0.14288137    -0.41700
O1405       O  0.61802472  0.79917420  0.16755695    -0.78400
O1406       O  0.58744789  0.80128878  0.13513366    -0.97100
O1407       O  0.61005718  0.73229158  0.10987703    -0.90400
O1408       O  0.64354896  0.73183978  0.14591085    -0.93200
C1409       C  0.62611804  0.95372465  0.12526545     1.00500
C1410       C  0.70448884  0.83654984  0.13153901     1.13500
C1411       C  0.62312406  0.85625846  0.05249529     1.04300
O1412       O  0.56292832  0.84349638  0.08354722    -0.95400
O1413       O  0.55831061  0.76569569  0.10297261    -0.91100
O1414       O  0.56275024  0.72875068  0.13646881    -0.84300
C1415       C  0.55061004  0.74243460  0.11943291     1.10900
O1416       O  0.68204661  0.73742236  0.07793306    -0.97300
Zr1417     Zr  0.65075813  0.73003288  0.10554919     1.88900
O1418       O  0.61265643  0.66007119  0.14082609    -0.74000
O1419       O  0.58831548  0.74530898  0.06449211    -0.53300
O1420       O  0.64024264  0.69898580  0.06857454    -0.97900
O1421       O  0.68617001  0.69588034  0.11843829    -0.55100
O1422       O  0.64092474  0.65764003  0.11420002    -0.74500
C1423       C  0.62650623  0.63953431  0.12748262     0.97800
O1424       O  0.57831137  0.69310841  0.17580449    -0.63300
O1425       O  0.66763328  0.85384710  0.18935977    -0.58100
O1426       O  0.61095154  0.73212555  0.19169935    -0.94800
O1427       O  0.64566084  0.76315169  0.19769164    -0.93200
O1428       O  0.61758601  0.90341954  0.18492915    -0.93600
O1429       O  0.57750344  0.85991483  0.18383792    -0.92400
C1430       C  0.62774875  0.74316876  0.20484588     1.16700
H1431       H  0.65177710  0.88707974  0.15298866     0.32600
H1432       H  0.57132502  0.80447647  0.13842499     0.43500
H1433       H  0.64978396  0.70710490  0.15371470     0.37000
H1434       H  0.63969106  0.79077854  0.07266931     0.33500
H1435       H  0.56458736  0.91945817  0.15039564     0.25300
H1436       H  0.57489205  0.75648522  0.05594895     0.31200
H1437       H  0.62521857  0.68499932  0.07127952     0.37100
H1438       H  0.61125642  0.93273780  0.18328879     0.31600
H1439       H  0.65998178  0.84544185  0.20388324     0.30500
H1440       H  0.69257901  0.76843494  0.19438330     0.32100
H1441       H  0.68195281  0.67915316  0.13229360     0.31100
H1442       H  0.57485231  0.82876958  0.18595257     0.35100
H1443       H  0.56453236  0.71089846  0.17871002     0.27800
H1444       H  0.67065306  0.92339018  0.07703282     0.32100
H1445       H  0.68507065  0.70805454  0.07219259     0.34900
H1446       H  0.68423543  0.85054132  0.19253619     0.27500
H1447       H  0.57274669  0.66860536  0.16651314     0.40400
H1448       H  0.56922634  0.87299975  0.08335193     0.30500
H1449       H  0.56563721  0.89743258  0.12620859     0.38100
H1450       H  0.69568996  0.71972940  0.12439424     0.29900
H1451       H  0.60136204  0.74877562  0.05373051     0.30000
H1452       H  0.68369675  0.88072728  0.07100659     0.30300
Zr1453     Zr  0.65092000  0.08415211  0.40214116     2.17500
O1454       O  0.67907466  0.04503877  0.42501607    -0.52100
O1455       O  0.64339240  0.00796130  0.39460382    -0.75300
O1456       O  0.64022364  0.07772709  0.44303043    -0.82100
O1457       O  0.69462277  0.12359470  0.35747531    -0.83800
O1458       O  0.60498074  0.10684251  0.44879174    -0.79500
O1459       O  0.69204788  0.08956223  0.39182475    -0.91100
O1460       O  0.61550740  0.00215506  0.36755200    -0.77100
O1461       O  0.61038560  0.07778224  0.39786176    -0.86600
O1462       O  0.64351498  0.07788639  0.36171347    -0.86200
O1463       O  0.63523692  0.14910683  0.41853825    -0.73000
O1464       O  0.66479680  0.14885691  0.38463876    -0.85100
Zr1465     Zr  0.60088976  0.20256752  0.35649081     2.26400
Zr1466     Zr  0.59451234  0.14242667  0.41332842     2.06300
Zr1467     Zr  0.65670772  0.14325348  0.34457554     2.10000
Zr1468     Zr  0.60289593  0.07322538  0.35771113     1.78800
O1469       O  0.68591856  0.18948057  0.32765173    -0.93900
O1470       O  0.56902163  0.03806525  0.37366995    -0.41700
O1471       O  0.61610899  0.13791496  0.33965113    -0.78400
O1472       O  0.58633798  0.13683170  0.37302966    -0.97100
O1473       O  0.60844733  0.20765404  0.39661803    -0.90400
O1474       O  0.64143143  0.20840015  0.36013505    -0.93200
C1475       C  0.63016131  0.98599520  0.38141023     1.00500
C1476       C  0.70378807  0.10510807  0.37491576     1.13500
C1477       C  0.62289933  0.08701539  0.45588923     1.04300
O1478       O  0.56439150  0.09266401  0.42488044    -0.95400
O1479       O  0.55782933  0.17523663  0.40460846    -0.91100
O1480       O  0.56179582  0.21119306  0.37073506    -0.84300
C1481       C  0.54996581  0.19808945  0.38803064     1.10900
O1482       O  0.68113200  0.20823960  0.42702392    -0.97300
Zr1483     Zr  0.64902098  0.21279513  0.40030388     1.88900
O1484       O  0.60958936  0.27864365  0.36380009    -0.74000
O1485       O  0.58716030  0.19360590  0.44407322    -0.53300
O1486       O  0.63933035  0.24792697  0.43645128    -0.97900
O1487       O  0.68327281  0.24783350  0.38507116    -0.55100
O1488       O  0.63624289  0.28414800  0.39200529    -0.74500
C1489       C  0.62225922  0.30060667  0.37759741     0.97800
O1490       O  0.56959858  0.23455287  0.33451686    -0.63300
O1491       O  0.66547867  0.08728938  0.31663009    -0.58100
O1492       O  0.60995814  0.20854855  0.31530290    -0.94800
O1493       O  0.64448079  0.17681562  0.30918007    -0.93200
O1494       O  0.61035817  0.03767615  0.32120936    -0.93600
O1495       O  0.57103607  0.07491938  0.33061151    -0.92400
C1496       C  0.62688653  0.19788084  0.30227166     1.16700
H1497       H  0.65124765  0.05333411  0.35518986     0.32600
H1498       H  0.57015421  0.13333452  0.37014009     0.43500
H1499       H  0.64725776  0.23297884  0.35183315     0.37000
H1500       H  0.63921191  0.15290211  0.43450051     0.33500
H1501       H  0.56536156  0.01479142  0.36268422     0.25300
H1502       H  0.57526902  0.17972157  0.45371800     0.31200
H1503       H  0.62327779  0.25772041  0.43451385     0.37100
H1504       H  0.61909217  0.05895654  0.31207815     0.31600
H1505       H  0.66833167  0.10276136  0.30203023     0.30500
H1506       H  0.69273966  0.17222513  0.31509793     0.32100
H1507       H  0.67763675  0.26932671  0.37388024     0.31100
H1508       H  0.57277118  0.10259774  0.32241860     0.35100
H1509       H  0.57650514  0.25817503  0.32545584     0.27800
H1510       H  0.67084727  0.01987658  0.43136628     0.32100
H1511       H  0.68483325  0.23829046  0.43111315     0.34900
H1512       H  0.68073617  0.07620522  0.32119265     0.27500
H1513       H  0.56505664  0.21259669  0.32310160     0.40400
H1514       H  0.57168327  0.06398161  0.42454919     0.30500
H1515       H  0.57458363  0.02282976  0.38752999     0.38100
H1516       H  0.69079716  0.22563652  0.37550662     0.29900
H1517       H  0.60120248  0.19303937  0.45365457     0.30000
H1518       H  0.68231742  0.06342472  0.43851508     0.30300
Zr1519     Zr  0.65189614  0.57975384  0.39989890     2.17500
O1520       O  0.68071341  0.53625573  0.41947872    -0.52100
O1521       O  0.64030358  0.50575597  0.39105648    -0.75300
O1522       O  0.64277586  0.57144024  0.44099366    -0.82100
O1523       O  0.69734403  0.62115633  0.35647883    -0.83800
O1524       O  0.60767478  0.60092492  0.44740463    -0.79500
O1525       O  0.69267284  0.58194804  0.38921930    -0.91100
O1526       O  0.61277987  0.50508154  0.36353072    -0.77100
O1527       O  0.61131947  0.57780859  0.39546865    -0.86600
O1528       O  0.64467197  0.57888989  0.35938527    -0.86200
O1529       O  0.63857120  0.64456049  0.41834310    -0.73000
O1530       O  0.66737639  0.64493555  0.38451803    -0.85100
Zr1531     Zr  0.60513681  0.70702338  0.35798976     2.26400
Zr1532     Zr  0.59780539  0.64208413  0.41334731     2.06300
Zr1533     Zr  0.65978759  0.64481668  0.34433434     2.10000
Zr1534     Zr  0.60396109  0.57847726  0.35512036     1.78800
O1535       O  0.68937356  0.69492036  0.33191403    -0.93900
O1536       O  0.56825217  0.54438197  0.36729159    -0.41700
O1537       O  0.61916032  0.64340689  0.33947314    -0.78400
O1538       O  0.58884802  0.64124638  0.37294717    -0.97100
O1539       O  0.61306458  0.70785489  0.39826395    -0.90400
O1540       O  0.64583024  0.70922405  0.36179522    -0.93200
C1541       C  0.62613542  0.48624191  0.37768666     1.00500
C1542       C  0.70509865  0.59909824  0.37336077     1.13500
C1543       C  0.62570829  0.58090406  0.45413834     1.04300
O1544       O  0.56622615  0.59479647  0.42397155    -0.95400
O1545       O  0.56256179  0.68092703  0.40712877    -0.91100
O1546       O  0.56607739  0.71562130  0.37311009    -0.84300
C1547       C  0.55438945  0.70392060  0.39086561     1.10900
O1548       O  0.68687497  0.70125325  0.42735710    -0.97300
Zr1549     Zr  0.65375419  0.70890643  0.40202882     1.88900
O1550       O  0.61560117  0.78120333  0.36770610    -0.74000
O1551       O  0.59273843  0.68964946  0.44618149    -0.53300
O1552       O  0.64613682  0.73525629  0.44072537    -0.97900
O1553       O  0.68895852  0.74251462  0.38810026    -0.55100
O1554       O  0.64217035  0.78211897  0.39625288    -0.74500
C1555       C  0.62852177  0.80079313  0.38227204     0.97800
O1556       O  0.57981463  0.74572805  0.33176767    -0.63300
O1557       O  0.66981456  0.59262547  0.31481483    -0.58100
O1558       O  0.61336089  0.71343157  0.31647052    -0.94800
O1559       O  0.64697985  0.67920267  0.30922454    -0.93200
O1560       O  0.61344786  0.54866579  0.31757084    -0.93600
O1561       O  0.57329038  0.58664601  0.32700161    -0.92400
C1562       C  0.62977489  0.70199299  0.30287171     1.16700
H1563       H  0.65176375  0.55433733  0.35217819     0.32600
H1564       H  0.57252951  0.63921783  0.37033968     0.43500
H1565       H  0.65214439  0.73418095  0.35421782     0.37000
H1566       H  0.64278560  0.64655840  0.43434162     0.33500
H1567       H  0.56683600  0.51850658  0.35751465     0.25300
H1568       H  0.58017054  0.67647163  0.45522790     0.31200
H1569       H  0.63039311  0.74706278  0.43999800     0.37100
H1570       H  0.62540292  0.52680714  0.32056040     0.31600
H1571       H  0.65779319  0.59573501  0.30290273     0.30500
H1572       H  0.69955053  0.67797999  0.32174394     0.32100
H1573       H  0.68405660  0.76321251  0.37616243     0.31100
H1574       H  0.57494357  0.61641927  0.32127254     0.35100
H1575       H  0.56638516  0.72678614  0.32929497     0.27800
H1576       H  0.67216576  0.51214805  0.42653954     0.32100
H1577       H  0.69052242  0.73058307  0.43279660     0.34900
H1578       H  0.68388455  0.60425781  0.30756128     0.27500
H1579       H  0.57383931  0.77047623  0.34060282     0.40400
H1580       H  0.55619849  0.59399562  0.41024283     0.30500
H1581       H  0.57148999  0.53298371  0.38285350     0.38100
H1582       H  0.69698610  0.71957222  0.37949789     0.29900
H1583       H  0.60661746  0.68536478  0.45572982     0.30000
H1584       H  0.68603122  0.55378404  0.43263996     0.30300
Zr1585     Zr  0.85720599  0.10911925  0.39655869     2.17500
O1586       O  0.83066140  0.15398177  0.41841308    -0.52100
O1587       O  0.86896122  0.18263974  0.38742781    -0.75300
O1588       O  0.86825123  0.11484717  0.43770230    -0.82100
O1589       O  0.81050104  0.07773328  0.35258037    -0.83800
O1590       O  0.90199597  0.07924909  0.44241792    -0.79500
O1591       O  0.81611478  0.10999272  0.38723556    -0.91100
O1592       O  0.89796150  0.18382560  0.36152842    -0.77100
O1593       O  0.89761637  0.10912945  0.39064079    -0.86600
O1594       O  0.86302814  0.11162704  0.35571481    -0.86200
O1595       O  0.87003002  0.04249902  0.41314068    -0.73000
O1596       O  0.83976457  0.04628504  0.38016164    -0.85100
Zr1597     Zr  0.90047938  0.98117695  0.35158833     2.26400
Zr1598     Zr  0.91072621  0.04289584  0.40681132     2.06300
Zr1599     Zr  0.84661009  0.04764717  0.33964965     2.10000
Zr1600     Zr  0.90345912  0.11020851  0.35002666     1.78800
O1601       O  0.81466734  0.00463901  0.32550951    -0.93900
O1602       O  0.94200384  0.13510573  0.35909542    -0.41700
O1603       O  0.88708636  0.04652802  0.33410405    -0.78400
O1604       O  0.91804848  0.04552675  0.36625559    -0.97100
O1605       O  0.89338687  0.97901600  0.39183735    -0.90400
O1606       O  0.85975844  0.98145100  0.35599037    -0.93200
C1607       C  0.88393690  0.20256611  0.37512187     1.00500
C1608       C  0.80325875  0.09779301  0.37044096     1.13500
C1609       C  0.88506356  0.10115620  0.45017166     1.04300
O1610       O  0.94312378  0.08864568  0.41674640    -0.95400
O1611       O  0.94597597  0.00534681  0.39819554    -0.91100
O1612       O  0.94001579  0.96900037  0.36478371    -0.84300
C1613       C  0.95266667  0.98115714  0.38170117     1.10900
O1614       O  0.82386589  0.98928697  0.42648031    -0.97300
Zr1615     Zr  0.85268404  0.98067604  0.39635996     1.88900
O1616       O  0.89023641  0.90759748  0.36241982    -0.74000
O1617       O  0.91745175  0.99181545  0.43778317    -0.53300
O1618       O  0.86302419  0.94563000  0.43238262    -0.97900
O1619       O  0.81423641  0.95965520  0.38412813    -0.55100
O1620       O  0.85952467  0.90698731  0.38645833    -0.74500
C1621       C  0.87489781  0.88815385  0.37448405     0.97800
O1622       O  0.92415272  0.94386016  0.32329260    -0.63300
O1623       O  0.83998883  0.10201148  0.31027749    -0.58100
O1624       O  0.89083599  0.97442258  0.31088507    -0.94800
O1625       O  0.85770073  0.01070141  0.30431062    -0.93200
O1626       O  0.89092812  0.14558452  0.31482586    -0.93600
O1627       O  0.93118327  0.10055265  0.31910539    -0.92400
C1628       C  0.87446228  0.98687753  0.29765361     1.16700
H1629       H  0.85615923  0.13703566  0.34912597     0.32600
H1630       H  0.93423528  0.04666535  0.36287488     0.43500
H1631       H  0.85284687  0.95728015  0.34827834     0.37000
H1632       H  0.86618304  0.03967115  0.42919405     0.33500
H1633       H  0.94430407  0.16082698  0.34937778     0.25300
H1634       H  0.92694781  0.00754955  0.44909953     0.31200
H1635       H  0.85658371  0.91630969  0.43134272     0.37100
H1636       H  0.89746585  0.17485896  0.31564148     0.31600
H1637       H  0.85321505  0.09930478  0.29967848     0.30500
H1638       H  0.80559087  0.02439100  0.31575981     0.32100
H1639       H  0.81199927  0.93041297  0.39037782     0.31100
H1640       H  0.92932399  0.07023633  0.31436424     0.35100
H1641       H  0.93785349  0.96216645  0.32088530     0.27800
H1642       H  0.84013165  0.17737493  0.42496197     0.32100
H1643       H  0.81837485  0.96000248  0.43017281     0.34900
H1644       H  0.82676144  0.09113248  0.30133303     0.27500
H1645       H  0.92993444  0.91780656  0.33113269     0.40400
H1646       H  0.93661702  0.11790008  0.41796880     0.30500
H1647       H  0.94087096  0.14636651  0.37496872     0.38100
H1648       H  0.81532377  0.95552027  0.36729155     0.29900
H1649       H  0.90234046  0.98849593  0.44537630     0.30000
H1650       H  0.82588478  0.13652076  0.43182369     0.30300
Zr1651     Zr  0.85696840  0.60761946  0.39839463     2.17500
O1652       O  0.82790287  0.64257385  0.42212997    -0.52100
O1653       O  0.86390696  0.68248869  0.38897601    -0.75300
O1654       O  0.86963128  0.61886656  0.43850318    -0.82100
O1655       O  0.81115690  0.57063691  0.35459711    -0.83800
O1656       O  0.90436592  0.58740713  0.44338222    -0.79500
O1657       O  0.81596917  0.60377201  0.38915643    -0.91100
O1658       O  0.89416699  0.68658907  0.36447913    -0.77100
O1659       O  0.89724556  0.61328355  0.39189527    -0.86600
O1660       O  0.86207340  0.61100408  0.35749862    -0.86200
O1661       O  0.87287566  0.54397907  0.41550447    -0.73000
O1662       O  0.84190195  0.54275120  0.38242526    -0.85100
Zr1663     Zr  0.90378795  0.48518465  0.35290075     2.26400
Zr1664     Zr  0.91322783  0.54925880  0.40804360     2.06300
Zr1665     Zr  0.84801058  0.54477357  0.34183618     2.10000
Zr1666     Zr  0.90230800  0.61487133  0.35121571     1.78800
O1667       O  0.81840341  0.49345562  0.33103477    -0.93900
O1668       O  0.94022294  0.64542098  0.35792352    -0.41700
O1669       O  0.88834648  0.54890915  0.33544054    -0.78400
O1670       O  0.91939421  0.55194217  0.36714281    -0.97100
O1671       O  0.89797123  0.48323179  0.39345493    -0.90400
O1672       O  0.86340499  0.48088066  0.35862033    -0.93200
C1673       C  0.87885387  0.70355715  0.37735489     1.00500
C1674       C  0.80345481  0.58960966  0.37256194     1.13500
C1675       C  0.88721006  0.60905024  0.45092774     1.04300
O1676       O  0.94501085  0.59658893  0.41787530    -0.95400
O1677       O  0.94948505  0.51624272  0.39835404    -0.91100
O1678       O  0.94377531  0.47768149  0.36558212    -0.84300
C1679       C  0.95645117  0.49203312  0.38197250     1.10900
O1680       O  0.82851074  0.49099153  0.42906451    -0.97300
Zr1681     Zr  0.85748235  0.47993666  0.39926897     1.88900
O1682       O  0.89479233  0.41012720  0.36273160    -0.74000
O1683       O  0.92042529  0.49791352  0.43882048    -0.53300
O1684       O  0.86905027  0.44502567  0.43493543    -0.97900
O1685       O  0.82007016  0.45099342  0.38854043    -0.55100
O1686       O  0.86729676  0.40725006  0.39022976    -0.74500
C1687       C  0.88122445  0.38933531  0.37627865     0.97800
O1688       O  0.92794799  0.44836398  0.32485271    -0.63300
O1689       O  0.83729377  0.59561684  0.31183690    -0.58100
O1690       O  0.89356180  0.47814427  0.31208292    -0.94800
O1691       O  0.85931565  0.51075898  0.30589005    -0.93200
O1692       O  0.88632421  0.64772489  0.31673844    -0.93600
O1693       O  0.92898554  0.61543848  0.31895053    -0.92400
C1694       C  0.87663904  0.48874676  0.29900068     1.16700
H1695       H  0.85409677  0.63531850  0.35095918     0.32600
H1696       H  0.93541860  0.55495234  0.36330730     0.43500
H1697       H  0.85704730  0.45580633  0.35124163     0.37000
H1698       H  0.86963943  0.54180916  0.43173486     0.33500
H1699       H  0.93894437  0.67584175  0.35317999     0.25300
H1700       H  0.93518682  0.50712395  0.44564168     0.31200
H1701       H  0.88542333  0.43766030  0.43268128     0.37100
H1702       H  0.88774505  0.67903035  0.31921268     0.31600
H1703       H  0.85119360  0.59845480  0.30214890     0.30500
H1704       H  0.80751068  0.50998727  0.32143474     0.32100
H1705       H  0.81657851  0.42867402  0.40014003     0.31100
H1706       H  0.93232633  0.58477210  0.31603816     0.35100
H1707       H  0.94123927  0.46749272  0.32204769     0.27800
H1708       H  0.83512821  0.66924982  0.42789374     0.32100
H1709       H  0.82623600  0.46282613  0.43661306     0.34900
H1710       H  0.82626937  0.57975981  0.30206534     0.27500
H1711       H  0.93432389  0.42311098  0.33298210     0.40400
H1712       H  0.93832628  0.62579272  0.41789722     0.30500
H1713       H  0.94175024  0.64644283  0.37486248     0.38100
H1714       H  0.82277792  0.43483421  0.37415204     0.29900
H1715       H  0.90881733  0.50441223  0.45077414     0.30000
H1716       H  0.82597132  0.62414416  0.43587580     0.30300
Zr1717     Zr  0.85816852  0.32501812  0.10284605     2.17500
O1718       O  0.82940008  0.28418530  0.08156611    -0.52100
O1719       O  0.86724688  0.25014042  0.11230330    -0.75300
O1720       O  0.86848091  0.31678387  0.06207233    -0.82100
O1721       O  0.81323095  0.36185400  0.14689861    -0.83800
O1722       O  0.90400205  0.34519708  0.05633866    -0.79500
O1723       O  0.81727554  0.32730586  0.11274050    -0.91100
O1724       O  0.89819361  0.24656048  0.13581032    -0.77100
O1725       O  0.89852829  0.31887385  0.10842834    -0.86600
O1726       O  0.86422446  0.32237547  0.14345896    -0.86200
O1727       O  0.87396128  0.38881667  0.08534127    -0.73000
O1728       O  0.84327953  0.39105242  0.11816582    -0.85100
Zr1729     Zr  0.90627962  0.44734209  0.14694880     2.26400
Zr1730     Zr  0.91449353  0.38227677  0.09162859     2.06300
Zr1731     Zr  0.85021443  0.38880512  0.15862351     2.10000
Zr1732     Zr  0.90468040  0.31846074  0.14896948     1.78800
O1733       O  0.82001814  0.43700881  0.17174963    -0.93900
O1734       O  0.94278952  0.28999198  0.14085104    -0.41700
O1735       O  0.89058694  0.38424028  0.16459236    -0.78400
O1736       O  0.92183275  0.38077996  0.13239440    -0.97100
O1737       O  0.90009232  0.44894891  0.10645850    -0.90400
O1738       O  0.86581620  0.45263822  0.14184587    -0.93200
C1739       C  0.88254359  0.22915192  0.12361636     1.00500
C1740       C  0.80512753  0.34128639  0.12964617     1.13500
C1741       C  0.88577114  0.32623182  0.04920755     1.04300
O1742       O  0.94503080  0.33092801  0.08377810    -0.95400
O1743       O  0.95052809  0.41749681  0.09927107    -0.91100
O1744       O  0.94541703  0.45547821  0.13231199    -0.84300
C1745       C  0.95761882  0.44217181  0.11534509     1.10900
O1746       O  0.82871903  0.44648330  0.07340805    -0.97300
Zr1747     Zr  0.85969437  0.45388241  0.10131895     1.88900
O1748       O  0.89737563  0.52222592  0.13787985    -0.74000
O1749       O  0.92411617  0.42911886  0.05947384    -0.53300
O1750       O  0.87206863  0.48278836  0.06434927    -0.97900
O1751       O  0.82545042  0.49322015  0.11306245    -0.55100
O1752       O  0.87217733  0.52609214  0.10831354    -0.74500
C1753       C  0.88522599  0.54333668  0.12332466     0.97800
O1754       O  0.93178608  0.48565374  0.17309306    -0.63300
O1755       O  0.84089183  0.33731064  0.18874405    -0.58100
O1756       O  0.89743849  0.45288128  0.18836994    -0.94800
O1757       O  0.86259376  0.42233627  0.19413918    -0.93200
O1758       O  0.89020721  0.28162790  0.18301756    -0.93600
O1759       O  0.92953034  0.32076646  0.18258803    -0.92400
C1760       C  0.88036605  0.44259609  0.20140134     1.16700
H1761       H  0.85630074  0.29820305  0.15019809     0.32600
H1762       H  0.93797666  0.37804844  0.13569929     0.43500
H1763       H  0.85968432  0.47779809  0.14933242     0.37000
H1764       H  0.87029014  0.39177480  0.06927681     0.33500
H1765       H  0.94373807  0.26314777  0.14992152     0.25300
H1766       H  0.93453407  0.41188131  0.04969460     0.31200
H1767       H  0.86475246  0.51138288  0.06322924     0.37100
H1768       H  0.88101368  0.25722046  0.17721559     0.31600
H1769       H  0.85534439  0.33382483  0.19748435     0.30500
H1770       H  0.81596747  0.42670435  0.18734782     0.32100
H1771       H  0.83066740  0.51380403  0.12492075     0.31100
H1772       H  0.93841990  0.34764337  0.18079848     0.35100
H1773       H  0.94539170  0.46703042  0.17518709     0.27800
H1774       H  0.83762855  0.25910363  0.07516515     0.32100
H1775       H  0.82545056  0.47593034  0.06791916     0.34900
H1776       H  0.83062657  0.35308806  0.19935253     0.27500
H1777       H  0.93744464  0.51091336  0.16442805     0.40400
H1778       H  0.95601526  0.33421433  0.09664389     0.30500
H1779       H  0.94195167  0.28014847  0.12469521     0.38100
H1780       H  0.81617386  0.47196489  0.12166874     0.29900
H1781       H  0.90977113  0.43147736  0.05044066     0.30000
H1782       H  0.82534134  0.30195765  0.06803762     0.30300
Zr1783     Zr  0.85633125  0.82373221  0.10275631     2.17500
O1784       O  0.82708053  0.78357264  0.08174796    -0.52100
O1785       O  0.86718767  0.74896215  0.11124424    -0.75300
O1786       O  0.86585771  0.81536476  0.06189616    -0.82100
O1787       O  0.81087498  0.86701965  0.14503742    -0.83800
O1788       O  0.90084052  0.84547490  0.05546338    -0.79500
O1789       O  0.81556470  0.82445329  0.11358393    -0.91100
O1790       O  0.89482534  0.74645012  0.13868823    -0.77100
O1791       O  0.89676129  0.81891737  0.10788205    -0.86600
O1792       O  0.86277638  0.82191100  0.14332899    -0.86200
O1793       O  0.87132115  0.88825630  0.08504421    -0.73000
O1794       O  0.84147325  0.89000423  0.11767851    -0.85100
Zr1795     Zr  0.90492666  0.94734365  0.14590686     2.26400
Zr1796     Zr  0.91197525  0.88247244  0.09049442     2.06300
Zr1797     Zr  0.84846764  0.88847866  0.15801056     2.10000
Zr1798     Zr  0.90339797  0.81919000  0.14834644     1.78800
O1799       O  0.81885703  0.93607948  0.17299888    -0.93900
O1800       O  0.94022107  0.78974890  0.13631708    -0.41700
O1801       O  0.88888671  0.88459289  0.16375443    -0.78400
O1802       O  0.92015344  0.88091081  0.13104671    -0.97100
O1803       O  0.89777876  0.94906470  0.10552706    -0.90400
O1804       O  0.86428548  0.95243021  0.14148624    -0.93200
C1805       C  0.88123254  0.72858933  0.12442394     1.00500
C1806       C  0.80312000  0.84332261  0.12883216     1.13500
C1807       C  0.88276990  0.82554364  0.04873623     1.04300
O1808       O  0.94223100  0.83175602  0.08069646    -0.95400
O1809       O  0.94832025  0.91683776  0.09772322    -0.91100
O1810       O  0.94425470  0.95497110  0.13085777    -0.84300
C1811       C  0.95609856  0.94105993  0.11369302     1.10900
O1812       O  0.82759022  0.94917732  0.07171520    -0.97300
Zr1813     Zr  0.85723064  0.95357127  0.10121326     1.88900
O1814       O  0.89663879  0.02252651  0.13685696    -0.74000
O1815       O  0.92100790  0.93095834  0.05886549    -0.53300
O1816       O  0.86788659  0.98780134  0.06503640    -0.97900
O1817       O  0.82107625  0.98409276  0.11462372    -0.55100
O1818       O  0.86798084  0.02611808  0.11052752    -0.74500
C1819       C  0.88281455  0.04347549  0.12379504     0.97800
O1820       O  0.93103837  0.98280580  0.17259848    -0.63300
O1821       O  0.83909179  0.83474749  0.18698834    -0.58100
O1822       O  0.89587517  0.95248795  0.18730575    -0.94800
O1823       O  0.86079222  0.92263074  0.19306966    -0.93200
O1824       O  0.89429714  0.78212909  0.18413811    -0.93600
O1825       O  0.93092403  0.82847378  0.17941634    -0.92400
C1826       C  0.87867925  0.94248617  0.20025868     1.16700
H1827       H  0.85513799  0.79755032  0.15023445     0.32600
H1828       H  0.93634672  0.87798087  0.13407698     0.43500
H1829       H  0.85821971  0.97752553  0.14911343     0.37000
H1830       H  0.86730997  0.89099482  0.06904237     0.33500
H1831       H  0.94313527  0.76578089  0.14710458     0.25300
H1832       H  0.93363483  0.91662829  0.05043557     0.31200
H1833       H  0.88425254  0.99563880  0.06688623     0.37100
H1834       H  0.87995346  0.76609961  0.18105933     0.31600
H1835       H  0.85329922  0.83181031  0.19618962     0.30500
H1836       H  0.81047622  0.91876608  0.18455932     0.32100
H1837       H  0.82544554  0.00733545  0.12535550     0.31100
H1838       H  0.93277908  0.85994459  0.18083699     0.35100
H1839       H  0.94395838  0.96351175  0.17449656     0.27800
H1840       H  0.83512869  0.75862418  0.07498270     0.32100
H1841       H  0.82207285  0.97894230  0.06948312     0.34900
H1842       H  0.82812407  0.84917534  0.19743957     0.27500
H1843       H  0.93739247  0.00842602  0.16400435     0.40400
H1844       H  0.93451407  0.80349588  0.07984068     0.30500
H1845       H  0.93707130  0.77555539  0.12142503     0.38100
H1846       H  0.81428454  0.96164851  0.12458754     0.29900
H1847       H  0.90766788  0.92919061  0.04837286     0.30000
H1848       H  0.82275682  0.80172885  0.06844632     0.30300
Zr1849     Zr  0.14900483  0.10990769  0.10158642     2.17500
O1850       O  0.17727889  0.15323262  0.08099268    -0.52100
O1851       O  0.13910677  0.18456046  0.11078707    -0.75300
O1852       O  0.14080739  0.11466650  0.06020479    -0.82100
O1853       O  0.19203682  0.07870412  0.14855059    -0.83800
O1854       O  0.10681852  0.08137543  0.05285792    -0.79500
O1855       O  0.18950353  0.10861208  0.11309222    -0.91100
O1856       O  0.10665183  0.18679094  0.13235988    -0.77100
O1857       O  0.10817117  0.11106533  0.10393345    -0.86600
O1858       O  0.13973973  0.11497717  0.14154037    -0.86200
O1859       O  0.13667671  0.04305190  0.08462072    -0.73000
O1860       O  0.16439167  0.04691979  0.11946067    -0.85100
Zr1861     Zr  0.10141241  0.98565104  0.14527659     2.26400
Zr1862     Zr  0.09567996  0.04438906  0.08774165     2.06300
Zr1863     Zr  0.15471802  0.05152422  0.15910040     2.10000
Zr1864     Zr  0.09891093  0.11435540  0.14386935     1.78800
O1865       O  0.18567127  0.00720803  0.17423272    -0.93900
O1866       O  0.06244171  0.14311055  0.13030890    -0.41700
O1867       O  0.11382193  0.05180789  0.16252756    -0.78400
O1868       O  0.08562699  0.04912038  0.12764113    -0.97100
O1869       O  0.11082937  0.98096470  0.10543899    -0.90400
O1870       O  0.14221908  0.98476705  0.14314405    -0.93200
C1871       C  0.12291233  0.20477619  0.12123627     1.00500
C1872       C  0.20098075  0.09699081  0.13096576     1.13500
C1873       C  0.12458419  0.10270474  0.04663003     1.04300
O1874       O  0.06393805  0.08880753  0.07444660    -0.95400
O1875       O  0.05973298  0.00771630  0.09452195    -0.91100
O1876       O  0.06356271  0.97193574  0.12852759    -0.84300
C1877       C  0.05200290  0.98401460  0.11081911     1.10900
O1878       O  0.18575796  0.98866241  0.07943827    -0.97300
Zr1879     Zr  0.15160593  0.98092809  0.10335402     1.88900
O1880       O  0.11265216  0.91071295  0.13898368    -0.74000
O1881       O  0.09248041  0.99129657  0.05719291    -0.53300
O1882       O  0.14447305  0.95061889  0.06537732    -0.97900
O1883       O  0.18650729  0.94858657  0.11865978    -0.55100
O1884       O  0.14048236  0.90816347  0.11178065    -0.74500
C1885       C  0.12646238  0.89010346  0.12570343     0.97800
O1886       O  0.06892960  0.95634786  0.16653686    -0.63300
O1887       O  0.16079190  0.10664655  0.18815241    -0.58100
O1888       O  0.10994725  0.97924426  0.18683092    -0.94800
O1889       O  0.14243957  0.01696531  0.19407291    -0.93200
O1890       O  0.10723487  0.14994922  0.18019587    -0.93600
O1891       O  0.06701333  0.10776102  0.17073094    -0.92400
C1892       C  0.12585365  0.99271439  0.20047940     1.16700
H1893       H  0.14631664  0.14032295  0.14841077     0.32600
H1894       H  0.06923874  0.05054883  0.12977555     0.43500
H1895       H  0.14855011  0.96097938  0.15167688     0.37000
H1896       H  0.14162505  0.03968930  0.06889793     0.33500
H1897       H  0.06045281  0.17052699  0.13867177     0.25300
H1898       H  0.07953056  0.00143350  0.04760860     0.31200
H1899       H  0.14546676  0.91914287  0.06740694     0.37100
H1900       H  0.11813587  0.17324441  0.17632494     0.31600
H1901       H  0.14555249  0.11056476  0.19539059     0.30500
H1902       H  0.18853897  0.01821687  0.18993164     0.32100
H1903       H  0.18127560  0.92701846  0.13001427     0.31100
H1904       H  0.06791161  0.07784029  0.17639187     0.35100
H1905       H  0.07522478  0.93364486  0.17663037     0.27800
H1906       H  0.16843395  0.17607207  0.07314764     0.32100
H1907       H  0.18884875  0.95974649  0.07311564     0.34900
H1908       H  0.17012028  0.09244502  0.20016536     0.27500
H1909       H  0.06399810  0.97971947  0.17694379     0.40400
H1910       H  0.07040185  0.11808180  0.07301031     0.30500
H1911       H  0.06535844  0.15172486  0.11418117     0.38100
H1912       H  0.19360198  0.97152291  0.12805053     0.29900
H1913       H  0.10624545  0.99572715  0.04747208     0.30000
H1914       H  0.18316339  0.13477213  0.06844523     0.30300
Zr1915     Zr  0.15225817  0.60674411  0.10531911     2.17500
O1916       O  0.18052980  0.64780992  0.08347459    -0.52100
O1917       O  0.14400876  0.68227994  0.11440122    -0.75300
O1918       O  0.14149600  0.61525030  0.06442179    -0.82100
O1919       O  0.19652113  0.56899944  0.15001713    -0.83800
O1920       O  0.10621218  0.58617058  0.05890489    -0.79500
O1921       O  0.19340277  0.59951969  0.11471330    -0.91100
O1922       O  0.11607877  0.68595845  0.14143777    -0.77100
O1923       O  0.11179652  0.61232097  0.11082323    -0.86600
O1924       O  0.14583565  0.61028678  0.14601550    -0.86200
O1925       O  0.13671252  0.54237019  0.08814430    -0.73000
O1926       O  0.16671783  0.54147912  0.12173683    -0.85100
Zr1927     Zr  0.10360853  0.48512121  0.15014074     2.26400
Zr1928     Zr  0.09618852  0.54859676  0.09413011     2.06300
Zr1929     Zr  0.15943197  0.54421914  0.16209549     2.10000
Zr1930     Zr  0.10540111  0.61383480  0.15138249     1.78800
O1931       O  0.18860145  0.49308143  0.17434793    -0.93900
O1932       O  0.06957691  0.65021907  0.14210173    -0.41700
O1933       O  0.11897570  0.54845692  0.16779790    -0.78400
O1934       O  0.08869271  0.55140843  0.13470173    -0.97100
O1935       O  0.11064753  0.48278449  0.10971340    -0.90400
O1936       O  0.14413059  0.47977755  0.14572851    -0.93200
C1937       C  0.13030409  0.70344971  0.12754658     1.00500
C1938       C  0.20530187  0.58576435  0.13191388     1.13500
C1939       C  0.12399418  0.60643733  0.05168072     1.04300
O1940       O  0.06568073  0.59875911  0.08433181    -0.95400
O1941       O  0.06030443  0.51278643  0.10231144    -0.91100
O1942       O  0.06477342  0.47480509  0.13548791    -0.84300
C1943       C  0.05289691  0.48785973  0.11821895     1.10900
O1944       O  0.17837990  0.48521767  0.07365246    -0.97300
Zr1945     Zr  0.15116128  0.47808884  0.10533011     1.88900
O1946       O  0.11090628  0.40964398  0.14092593    -0.74000
O1947       O  0.08778760  0.50048421  0.06223315    -0.53300
O1948       O  0.14117931  0.43644172  0.07133092    -0.97900
O1949       O  0.18865678  0.45149830  0.11734149    -0.55100
O1950       O  0.14090740  0.40616575  0.11599653    -0.74500
C1951       C  0.12546332  0.38887631  0.12857283     0.97800
O1952       O  0.07267847  0.45946968  0.17497607    -0.63300
O1953       O  0.17030246  0.59652870  0.19126843    -0.58100
O1954       O  0.11511073  0.47460170  0.19064652    -0.94800
O1955       O  0.14716968  0.51368316  0.19835965    -0.93200
O1956       O  0.11817464  0.64065363  0.18857613    -0.93600
O1957       O  0.07472812  0.61023291  0.17979691    -0.92400
C1958       C  0.13072052  0.48878765  0.20440081     1.16700
H1959       H  0.15361643  0.63452832  0.15278801     0.32600
H1960       H  0.07245887  0.55404310  0.13774383     0.43500
H1961       H  0.15011003  0.45476029  0.15352768     0.37000
H1962       H  0.14041626  0.53953426  0.07205525     0.33500
H1963       H  0.07035829  0.67797844  0.15034471     0.25300
H1964       H  0.07799668  0.51751321  0.05172241     0.31200
H1965       H  0.12449054  0.43103036  0.07273599     0.37100
H1966       H  0.11984580  0.67202556  0.18652737     0.31600
H1967       H  0.15755310  0.59631378  0.20253722     0.30500
H1968       H  0.19619952  0.50681711  0.18766321     0.32100
H1969       H  0.18931944  0.42169849  0.11150748     0.31100
H1970       H  0.07579456  0.58086732  0.18621560     0.35100
H1971       H  0.07850498  0.43309476  0.18247557     0.27800
H1972       H  0.17203513  0.67242164  0.07687560     0.32100
H1973       H  0.18560317  0.45666091  0.07186365     0.34900
H1974       H  0.18332310  0.58315428  0.19952048     0.27500
H1975       H  0.07128647  0.48089169  0.18747084     0.40400
H1976       H  0.05521192  0.59845682  0.09774869     0.30500
H1977       H  0.07105665  0.65800470  0.12566150     0.38100
H1978       H  0.18763535  0.44833378  0.13423765     0.29900
H1979       H  0.10255278  0.49742232  0.05394934     0.30000
H1980       H  0.18453583  0.62971287  0.07007336     0.30300
Zr1981     Zr  0.14780708  0.32439299  0.39966139     2.17500
O1982       O  0.17448068  0.27788770  0.42032057    -0.52100
O1983       O  0.13529848  0.25094249  0.39048044    -0.75300
O1984       O  0.13806775  0.31800816  0.44085002    -0.82100
O1985       O  0.19466345  0.36170718  0.35735295    -0.83800
O1986       O  0.10432668  0.35268664  0.44686847    -0.79500
O1987       O  0.18890535  0.32348276  0.39021316    -0.91100
O1988       O  0.10783240  0.25155725  0.36285840    -0.77100
O1989       O  0.10722922  0.32565290  0.39448583    -0.86600
O1990       O  0.14142590  0.32211838  0.35895433    -0.86200
O1991       O  0.13580151  0.39089732  0.41735768    -0.73000
O1992       O  0.16487775  0.38786900  0.38348495    -0.85100
Zr1993     Zr  0.10495720  0.45374012  0.35590875     2.26400
Zr1994     Zr  0.09506119  0.39185557  0.41172250     2.06300
Zr1995     Zr  0.15803556  0.38603553  0.34314200     2.10000
Zr1996     Zr  0.10097109  0.32527115  0.35381762     1.78800
O1997       O  0.18927299  0.42786583  0.32651324    -0.93900
O1998       O  0.06324763  0.29712542  0.36389640    -0.41700
O1999       O  0.11744028  0.38862227  0.33763668    -0.78400
O2000       O  0.08746381  0.38942883  0.37108140    -0.97100
O2001       O  0.11202517  0.45577809  0.39626079    -0.90400
O2002       O  0.14568130  0.45230878  0.36000556    -0.93200
C2003       C  0.12098800  0.23213261  0.37695156     1.00500
C2004       C  0.20187024  0.34001060  0.37459688     1.13500
C2005       C  0.12147108  0.33028848  0.45394788     1.04300
O2006       O  0.06248497  0.35238939  0.42730458    -0.95400
O2007       O  0.05941742  0.42772143  0.40205305    -0.91100
O2008       O  0.06556652  0.46554263  0.36908899    -0.84300
C2009       C  0.05267376  0.45199460  0.38553880     1.10900
O2010       O  0.18636706  0.43948244  0.42413819    -0.97300
Zr2011     Zr  0.15259727  0.45336949  0.40045391     1.88900
O2012       O  0.11754697  0.52740788  0.36387381    -0.74000
O2013       O  0.09115461  0.44858093  0.44022659    -0.53300
O2014       O  0.14189742  0.47979722  0.43840864    -0.97900
O2015       O  0.18772044  0.49171035  0.39043575    -0.55100
O2016       O  0.14365808  0.52728434  0.39266819    -0.74500
C2017       C  0.13094524  0.54666953  0.37812741     0.97800
O2018       O  0.07604441  0.49299157  0.33403298    -0.63300
O2019       O  0.16686638  0.32986080  0.31535008    -0.58100
O2020       O  0.11442887  0.45909776  0.31482208    -0.94800
O2021       O  0.14645111  0.41978340  0.30743768    -0.93200
O2022       O  0.11217288  0.29372178  0.31717494    -0.93600
O2023       O  0.07152211  0.33278991  0.32436944    -0.92400
C2024       C  0.13006955  0.44467883  0.30121380     1.16700
H2025       H  0.14798528  0.29658993  0.35221134     0.32600
H2026       H  0.07129071  0.38801584  0.36771615     0.43500
H2027       H  0.15277184  0.47635617  0.35224399     0.37000
H2028       H  0.13998392  0.39312024  0.43334756     0.33500
H2029       H  0.06249077  0.26852373  0.35653127     0.25300
H2030       H  0.07523540  0.44573607  0.44601341     0.31200
H2031       H  0.15203603  0.50474847  0.44113992     0.37100
H2032       H  0.12025730  0.31702723  0.30889002     0.31600
H2033       H  0.17424386  0.34505505  0.30233644     0.30500
H2034       H  0.19905022  0.40669227  0.31842834     0.32100
H2035       H  0.18728212  0.51880573  0.39930777     0.31100
H2036       H  0.06960390  0.36413207  0.32247979     0.35100
H2037       H  0.08436551  0.51658580  0.32622916     0.27800
H2038       H  0.16487288  0.25638635  0.42838456     0.32100
H2039       H  0.18616225  0.46127370  0.43649734     0.34900
H2040       H  0.17944702  0.31306856  0.32241839     0.27500
H2041       H  0.07115475  0.47342748  0.32154696     0.40400
H2042       H  0.06311303  0.32405153  0.41966362     0.30500
H2043       H  0.06420081  0.29089580  0.38055675     0.38100
H2044       H  0.18575980  0.50063711  0.37421553     0.29900
H2045       H  0.10087968  0.43934803  0.45327030     0.30000
H2046       H  0.18110301  0.29579139  0.43270246     0.30300
Zr2047     Zr  0.15070995  0.83098137  0.39746221     2.17500
O2048       O  0.17952305  0.79657575  0.42176254    -0.52100
O2049       O  0.14429334  0.75491572  0.38840013    -0.75300
O2050       O  0.13843799  0.82173443  0.43783070    -0.82100
O2051       O  0.19747504  0.87384223  0.35610386    -0.83800
O2052       O  0.10220680  0.84723574  0.44140948    -0.79500
O2053       O  0.19169654  0.83365328  0.38833381    -0.91100
O2054       O  0.11971145  0.74957751  0.35839349    -0.77100
O2055       O  0.11076708  0.82219535  0.39019394    -0.86600
O2056       O  0.14664162  0.82809293  0.35649984    -0.86200
O2057       O  0.13301229  0.89398262  0.41384610    -0.73000
O2058       O  0.16517898  0.89775448  0.38239685    -0.85100
Zr2059     Zr  0.10183541  0.94934810  0.35110854     2.26400
Zr2060     Zr  0.09294949  0.88468071  0.40602517     2.06300
Zr2061     Zr  0.16011644  0.89550812  0.34166471     2.10000
Zr2062     Zr  0.10655619  0.82094110  0.34940927     1.78800
O2063       O  0.18842818  0.94919434  0.33051907    -0.93900
O2064       O  0.07280680  0.77775008  0.35835790    -0.41700
O2065       O  0.12000829  0.88767261  0.33436114    -0.78400
O2066       O  0.08729250  0.88183151  0.36520911    -0.97100
O2067       O  0.10685575  0.95196670  0.39168782    -0.90400
O2068       O  0.14202790  0.95791870  0.35741142    -0.93200
C2069       C  0.13295868  0.73296124  0.37348120     1.00500
C2070       C  0.20468522  0.85144440  0.37317746     1.13500
C2071       C  0.12016344  0.82920482  0.44971003     1.04300
O2072       O  0.06248135  0.83181860  0.41059167    -0.95400
O2073       O  0.05677130  0.91899737  0.39749972    -0.91100
O2074       O  0.06170836  0.95496971  0.36381650    -0.84300
C2075       C  0.04936017  0.94214984  0.38086924     1.10900
O2076       O  0.17484382  0.95179276  0.42910033    -0.97300
Zr2077     Zr  0.14702692  0.95965764  0.39805845     1.88900
O2078       O  0.10757803  0.02506557  0.36072166    -0.74000
O2079       O  0.08217352  0.93003622  0.43839738    -0.53300
O2080       O  0.13491126  0.99475928  0.43343605    -0.97900
O2081       O  0.18234029  0.99711689  0.38757156    -0.55100
O2082       O  0.13406397  0.03080791  0.38910408    -0.74500
C2083       C  0.11982324  0.04700447  0.37484081     0.97800
O2084       O  0.07698504  0.98174465  0.32212053    -0.63300
O2085       O  0.17324017  0.84478830  0.31264022    -0.58100
O2086       O  0.11293053  0.95636734  0.31058978    -0.94800
O2087       O  0.14826988  0.92725855  0.30522481    -0.93200
O2088       O  0.11961487  0.79648733  0.31187662    -0.93600
O2089       O  0.07588882  0.82456973  0.32101757    -0.92400
C2090       C  0.13036872  0.94711480  0.29788940     1.16700
H2091       H  0.15527812  0.80455514  0.35004086     0.32600
H2092       H  0.07129883  0.87798678  0.36143997     0.43500
H2093       H  0.14764723  0.98363936  0.35000248     0.37000
H2094       H  0.13583694  0.89692755  0.43010058     0.33500
H2095       H  0.07374794  0.75277172  0.34787660     0.25300
H2096       H  0.07039485  0.91338708  0.44684658     0.31200
H2097       H  0.11811702  0.99845990  0.43177913     0.37100
H2098       H  0.11043010  0.77042850  0.30871986     0.31600
H2099       H  0.15966645  0.83980922  0.30276229     0.30500
H2100       H  0.20009295  0.93321697  0.32157490     0.32100
H2101       H  0.18075816  0.02608920  0.39437576     0.31100
H2102       H  0.07624690  0.85457786  0.31541812     0.35100
H2103       H  0.06404748  0.96153201  0.31997153     0.27800
H2104       H  0.17185283  0.77144540  0.42884222     0.32100
H2105       H  0.18069245  0.98103045  0.43222574     0.34900
H2106       H  0.18389888  0.86151295  0.30284823     0.27500
H2107       H  0.07016042  0.00734995  0.32952550     0.40400
H2108       H  0.05432381  0.83174455  0.39565258     0.30500
H2109       H  0.07585136  0.76565915  0.37380670     0.38100
H2110       H  0.18140595  0.00199380  0.37078964     0.29900
H2111       H  0.09572563  0.93009631  0.44867151     0.30000
H2112       H  0.18235928  0.81668113  0.43463365     0.30300
C2113       C  0.12940869  0.61505532  0.35614120    -0.09900
C2114       C  0.13232191  0.59430657  0.37733813     0.06300
C2115       C  0.13718430  0.61959610  0.39698972    -0.03700
C2116       C  0.13819263  0.66442089  0.39517327    -0.08100
C2117       C  0.13447706  0.68524278  0.37407449     0.05400
C2118       C  0.13070632  0.65974261  0.35427471    -0.03200
Br2119     Br  0.12855039  0.68307323  0.32378474    -0.02900
H2120       H  0.12647701  0.59630593  0.34073976     0.09300
H2121       H  0.14112025  0.68316233  0.41057964     0.07300
Br2122     Br  0.14101601  0.59584209  0.42723210    -0.03300
C2123       C  0.11869116  0.11580720  0.39622205    -0.09900
C2124       C  0.11787806  0.09427292  0.37497971     0.06300
C2125       C  0.11710096  0.11854012  0.35453770    -0.03700
C2126       C  0.11794145  0.16336186  0.35565996    -0.08100
C2127       C  0.11963883  0.18479497  0.37688061     0.05400
C2128       C  0.11925656  0.16062222  0.39732412    -0.03200
Br2129     Br  0.11766397  0.18707128  0.42708843    -0.02900
H2130       H  0.11881136  0.09760293  0.41210729     0.09300
H2131       H  0.11789441  0.18158110  0.33977978     0.07300
Br2132     Br  0.11697723  0.09246700  0.32460651    -0.03300
C2133       C  0.12825087  0.50939672  0.24572854    -0.09900
C2134       C  0.12954613  0.47682012  0.22904956     0.06300
C2135       C  0.13102008  0.43381941  0.23632870    -0.03700
C2136       C  0.13075730  0.42398465  0.25987422    -0.08100
C2137       C  0.12909481  0.45648920  0.27655116     0.05400
C2138       C  0.12796735  0.49958162  0.26929210    -0.03200
Br2139     Br  0.12812439  0.54616595  0.29088485    -0.02900
H2140       H  0.12771701  0.54269663  0.24038785     0.09300
H2141       H  0.13216568  0.39076982  0.26520944     0.07300
Br2142     Br  0.13552427  0.38791398  0.21484397    -0.03300
C2143       C  0.10928507  0.77243329  0.13215564    -0.09900
C2144       C  0.12993252  0.75122741  0.12659854     0.06300
C2145       C  0.14928550  0.77632319  0.12086813    -0.03700
C2146       C  0.14759753  0.82117537  0.12073829    -0.08100
C2147       C  0.12698237  0.84234575  0.12645590     0.05400
C2148       C  0.10762829  0.81723868  0.13216853    -0.03200
Br2149     Br  0.07805326  0.84142738  0.13901365    -0.02900
H2150       H  0.09407619  0.75397422  0.13633569     0.09300
H2151       H  0.16277044  0.83969304  0.11650135     0.07300
Br2152     Br  0.17891578  0.75205260  0.11451742    -0.03300
C2153       C  0.10406693  0.32124234  0.12175871    -0.09900
C2154       C  0.12450457  0.34170382  0.12815418     0.06300
C2155       C  0.14452041  0.31702152  0.13136384    -0.03700
C2156       C  0.14387177  0.27260637  0.12815453    -0.08100
C2157       C  0.12345485  0.25204577  0.12176153     0.05400
C2158       C  0.10343043  0.27680224  0.11838110    -0.03200
Br2159     Br  0.07529082  0.25213801  0.10742129    -0.02900
H2160       H  0.08880476  0.34007099  0.11849055     0.09300
H2161       H  0.15923671  0.25391225  0.13128433     0.07300
Br2162     Br  0.17292177  0.34230382  0.14117866    -0.03300
C2163       C  0.14734215  0.97963980  0.23680733    -0.09900
C2164       C  0.12607026  0.97965717  0.22527674     0.06300
C2165       C  0.10618975  0.96938571  0.23814788    -0.03700
C2166       C  0.10800862  0.95931570  0.26165637    -0.08100
C2167       C  0.12934922  0.95902432  0.27301768     0.05400
C2168       C  0.14914863  0.96979684  0.26021103    -0.03200
Br2169     Br  0.17913110  0.97490249  0.27364140    -0.02900
H2170       H  0.16292035  0.98774097  0.22758181     0.09300
H2171       H  0.09253759  0.95144199  0.27111725     0.07300
Br2172     Br  0.07588323  0.97061665  0.22543844    -0.03300
C2173       C  0.98752098  0.99480329  0.11304085    -0.09900
C2174       C  0.98066274  0.95176270  0.11266668     0.06300
C2175       C  0.99746225  0.91921050  0.11119199    -0.03700
C2176       C  0.02072774  0.93009083  0.11023636    -0.08100
C2177       C  0.02752279  0.97312927  0.11027494     0.05400
C2178       C  0.01075904  0.00568833  0.11160664    -0.03200
Br2179     Br  0.01880020  0.06540359  0.11284162    -0.02900
H2180       H  0.97477267  0.01998020  0.11429156     0.09300
H2181       H  0.03354946  0.90493496  0.10961888     0.07300
Br2182     Br  0.98968336  0.85937597  0.11197017    -0.03300
C2183       C  0.88435289  0.61359916  0.10304014    -0.09900
C2184       C  0.88565664  0.59076633  0.12389450     0.06300
C2185       C  0.88558085  0.61375955  0.14477227    -0.03700
C2186       C  0.88389582  0.65850345  0.14444152    -0.08100
C2187       C  0.88210674  0.68123676  0.12362290     0.05400
C2188       C  0.88281255  0.65842480  0.10274839    -0.03200
Br2189     Br  0.88347397  0.68691391  0.07346213    -0.02900
H2190       H  0.88469885  0.59646125  0.08683753     0.09300
H2191       H  0.88361436  0.67567840  0.16063723     0.07300
Br2192     Br  0.88595994  0.58604207  0.17431784    -0.03300
C2193       C  0.90332654  0.15936762  0.12280988    -0.09900
C2194       C  0.88231074  0.18167090  0.12297552     0.06300
C2195       C  0.86168911  0.15805698  0.12396903    -0.03700
C2196       C  0.86238137  0.11321106  0.12442560    -0.08100
C2197       C  0.88334450  0.09092017  0.12415628     0.05400
C2198       C  0.90399943  0.11444388  0.12329246    -0.03200
Br2199     Br  0.93345954  0.08709855  0.12116892    -0.02900
H2200       H  0.91934799  0.17699724  0.12203608     0.09300
H2201       H  0.84637098  0.09556277  0.12532120     0.07300
Br2202     Br  0.83213258  0.18500704  0.12639846    -0.03300
C2203       C  0.99836684  0.42192357  0.11834840    -0.09900
C2204       C  0.98186746  0.45407348  0.11505423     0.06300
C2205       C  0.98875035  0.49694965  0.11250623    -0.03700
C2206       C  0.01208362  0.50717176  0.11306708    -0.08100
C2207       C  0.02864817  0.47521784  0.11699629     0.05400
C2208       C  0.02164647  0.43228976  0.11982192    -0.03200
Br2209     Br  0.04307122  0.38669689  0.12539260    -0.02900
H2210       H  0.99304560  0.38881534  0.12041965     0.09300
H2211       H  0.01728353  0.54034031  0.11099542     0.07300
Br2212     Br  0.96682431  0.54214155  0.10801729    -0.03300
C2213       C  0.98803135  0.43952514  0.38556714    -0.09900
C2214       C  0.98099468  0.48172384  0.38157605     0.06300
C2215       C  0.99757066  0.51396028  0.37787159    -0.03700
C2216       C  0.02093062  0.50397456  0.37928777    -0.08100
C2217       C  0.02802546  0.46205511  0.38435478     0.05400
C2218       C  0.01135174  0.42939822  0.38680869    -0.03200
Br2219     Br  0.01933151  0.36989658  0.38990943    -0.02900
H2220       H  0.97534447  0.41442168  0.38780554     0.09300
H2221       H  0.03356336  0.52897981  0.37650454     0.07300
Br2222     Br  0.98908726  0.57150923  0.36977938    -0.03300
C2223       C  0.89886632  0.47263057  0.26301390    -0.09900
C2224       C  0.87750455  0.47580846  0.27422319     0.06300
C2225       C  0.85748036  0.46729377  0.26127829    -0.03700
C2226       C  0.85911604  0.45695660  0.23789866    -0.08100
C2227       C  0.88040058  0.45461050  0.22642827     0.05400
C2228       C  0.90051364  0.46237761  0.23949342    -0.03200
Br2229     Br  0.93089685  0.45797350  0.22702500    -0.02900
H2230       H  0.91449552  0.47869504  0.27256230     0.09300
H2231       H  0.84335627  0.45074471  0.22859953     0.07300
Br2232     Br  0.82721542  0.46675589  0.27441129    -0.03300
C2233       C  0.85668764  0.77112372  0.37556826    -0.09900
C2234       C  0.87794208  0.75068512  0.37816536     0.06300
C2235       C  0.89798421  0.77567361  0.38034949    -0.03700
C2236       C  0.89665507  0.82032136  0.37853250    -0.08100
C2237       C  0.87545449  0.84084737  0.37533244     0.05400
C2238       C  0.85524384  0.81581154  0.37434473    -0.03200
Br2239     Br  0.82527814  0.84021892  0.37025120    -0.02900
H2240       H  0.84116213  0.75218179  0.37396695     0.09300
H2241       H  0.91218269  0.83919086  0.38030210     0.07300
Br2242     Br  0.92719264  0.75072566  0.38776202    -0.03300
C2243       C  0.86416803  0.27160305  0.38296250    -0.09900
C2244       C  0.88425623  0.25035804  0.37610544     0.06300
C2245       C  0.90353162  0.27549240  0.36971761    -0.03700
C2246       C  0.90197551  0.32038928  0.36946426    -0.08100
C2247       C  0.88174742  0.34154726  0.37609903     0.05400
C2248       C  0.86272061  0.31631535  0.38314104    -0.03200
Br2249     Br  0.83356720  0.33944299  0.39236618    -0.02900
H2250       H  0.84913438  0.25327396  0.38788508     0.09300
H2251       H  0.91695981  0.33890842  0.36459490     0.07300
Br2252     Br  0.93307643  0.25156196  0.36272643    -0.03300
C2253       C  0.99300368  0.00260601  0.37606293    -0.09900
C2254       C  0.97715215  0.97007793  0.38122646     0.06300
C2255       C  0.98508346  0.92877682  0.38665149    -0.03700
C2256       C  0.00869773  0.92038379  0.38651051    -0.08100
C2257       C  0.02464654  0.95275997  0.38096683     0.05400
C2258       C  0.01660042  0.99431273  0.37587199    -0.03200
Br2259     Br  0.03704177  0.04154209  0.37029933    -0.02900
H2260       H  0.98696932  0.03476157  0.37234238     0.09300
H2261       H  0.01463145  0.88836373  0.39067239     0.07300
Br2262     Br  0.96436619  0.88374603  0.39537183    -0.03300
C2263       C  0.89695523  0.96824955  0.26219893    -0.09900
C2264       C  0.87547187  0.97415571  0.27292102     0.06300
C2265       C  0.85547956  0.96840833  0.25956462    -0.03700
C2266       C  0.85724712  0.95925188  0.23611355    -0.08100
C2267       C  0.87864575  0.95424872  0.22516879     0.05400
C2268       C  0.89870880  0.95797968  0.23870686    -0.03200
Br2269     Br  0.92883030  0.94618361  0.22693016    -0.02900
H2270       H  0.91256569  0.97161093  0.27214933     0.09300
H2271       H  0.84151442  0.95549840  0.22639365     0.07300
Br2272     Br  0.82506101  0.96911858  0.27228650    -0.03300
C2273       C  0.74302073  0.63208322  0.38049194    -0.09900
C2274       C  0.73010333  0.59539378  0.37505996     0.06300
C2275       C  0.74135316  0.55698531  0.36957777    -0.03700
C2276       C  0.76530166  0.55574270  0.36932904    -0.08100
C2277       C  0.77833457  0.59245112  0.37455778     0.05400
C2278       C  0.76704352  0.63082386  0.38042685    -0.03200
Br2279     Br  0.78352825  0.68296433  0.38648226    -0.02900
H2280       H  0.73436674  0.66199954  0.38435338     0.09300
H2281       H  0.77381535  0.52604787  0.36472531     0.07300
Br2282     Br  0.72469184  0.50650048  0.36080573    -0.03300
C2283       C  0.63098715  0.87033272  0.36169690    -0.09900
C2284       C  0.62845290  0.84821637  0.38253359     0.06300
C2285       C  0.62759392  0.87179129  0.40327852    -0.03700
C2286       C  0.62916198  0.91669254  0.40282279    -0.08100
C2287       C  0.63147643  0.93870900  0.38190124     0.05400
C2288       C  0.63269949  0.91506859  0.36126719    -0.03200
Br2289     Br  0.63808565  0.94230281  0.33213079    -0.02900
H2290       H  0.63226428  0.85265361  0.34570876     0.09300
H2291       H  0.62777369  0.93451078  0.41875611     0.07300
Br2292     Br  0.62261008  0.84458834  0.43248930    -0.03300
C2293       C  0.62429218  0.37037852  0.39817302    -0.09900
C2294       C  0.62122589  0.34816061  0.37730088     0.06300
C2295       C  0.61925880  0.37197399  0.35677498    -0.03700
C2296       C  0.62106241  0.41674747  0.35739503    -0.08100
C2297       C  0.62484383  0.43879843  0.37816535     0.05400
C2298       C  0.62597842  0.41515678  0.39879359    -0.03200
Br2299     Br  0.62846922  0.44210636  0.42840532    -0.02900
H2300       H  0.62542718  0.35272368  0.41419386     0.09300
H2301       H  0.61990819  0.43445581  0.34139338     0.07300
Br2302     Br  0.61569946  0.34548676  0.32718644    -0.03300
C2303       C  0.74100470  0.11407390  0.35436673    -0.09900
C2304       C  0.72948544  0.10352154  0.37499369     0.06300
C2305       C  0.74301735  0.09448721  0.39468434    -0.03700
C2306       C  0.76706083  0.09497405  0.39310980    -0.08100
C2307       C  0.77819745  0.10421702  0.37228585     0.05400
C2308       C  0.76490031  0.11485448  0.35294634    -0.03200
Br2309     Br  0.77839483  0.13281281  0.32433948    -0.02900
H2310       H  0.73143868  0.12202349  0.33898315     0.09300
H2311       H  0.77713720  0.08675278  0.40813763     0.07300
Br2312     Br  0.73056813  0.08176565  0.42441609    -0.03300
C2313       C  0.74259340  0.80140228  0.13438127    -0.09900
C2314       C  0.72973394  0.83851831  0.12938642     0.06300
C2315       C  0.74134709  0.87649969  0.12322899    -0.03700
C2316       C  0.76534158  0.87680654  0.12226378    -0.08100
C2317       C  0.77806351  0.83976494  0.12731386     0.05400
C2318       C  0.76658538  0.80180937  0.13335335    -0.03200
Br2319     Br  0.78307782  0.75092793  0.14183201    -0.02900
H2320       H  0.73394017  0.77201740  0.13932181     0.09300
H2321       H  0.77417948  0.90646390  0.11817857     0.07300
Br2322     Br  0.72560069  0.92980621  0.11834434    -0.03300
C2323       C  0.64814943  0.72949517  0.24164783    -0.09900
C2324       C  0.62710926  0.73264725  0.22995880     0.06300
C2325       C  0.60664520  0.72825530  0.24293532    -0.03700
C2326       C  0.60771762  0.71898838  0.26665633    -0.08100
C2327       C  0.62891081  0.71479439  0.27809193     0.05400
C2328       C  0.64922572  0.72157859  0.26525448    -0.03200
Br2329     Br  0.67919988  0.72442603  0.27888316    -0.02900
H2330       H  0.66414131  0.73387384  0.23240857     0.09300
H2331       H  0.59187203  0.71492691  0.27617675     0.07300
Br2332     Br  0.57680949  0.73755059  0.22989813    -0.03300
C2333       C  0.61899558  0.57035426  0.14753680    -0.09900
C2334       C  0.62658373  0.59183591  0.12775956     0.06300
C2335       C  0.63530951  0.56712387  0.10919680    -0.03700
C2336       C  0.63658355  0.52246401  0.11099052    -0.08100
C2337       C  0.62910943  0.50097429  0.13080564     0.05400
C2338       C  0.62018870  0.52565013  0.14929357    -0.03200
Br2339     Br  0.61020587  0.50157785  0.17808916    -0.02900
H2340       H  0.61254433  0.58850583  0.16205153     0.09300
H2341       H  0.64299234  0.50432391  0.09645229     0.07300
Br2342     Br  0.64483363  0.59099133  0.08019648    -0.03300
C2343       C  0.60657970  0.06994004  0.12461204    -0.09900
C2344       C  0.62747655  0.09139327  0.12774161     0.06300
C2345       C  0.64799429  0.06735712  0.12880566    -0.03700
C2346       C  0.64725833  0.02265725  0.12701155    -0.08100
C2347       C  0.62630786  0.00107545  0.12433130     0.05400
C2348       C  0.60584458  0.02522397  0.12272321    -0.03200
Br2349     Br  0.57660464  0.99934731  0.11644220    -0.02900
H2350       H  0.59081411  0.08814317  0.12301141     0.09300
H2351       H  0.66307239  0.00458042  0.12854577     0.07300
Br2352     Br  0.67733259  0.09341258  0.13436621    -0.03300
C2353       C  0.76800525  0.34108053  0.10825458    -0.09900
C2354       C  0.77997135  0.33540575  0.12901704     0.06300
C2355       C  0.76743425  0.32785585  0.14933727    -0.03700
C2356       C  0.74357775  0.32776554  0.14879241    -0.08100
C2357       C  0.73133125  0.33468317  0.12825739     0.05400
C2358       C  0.74389868  0.34078640  0.10766944    -0.03200
Br2359     Br  0.72966953  0.34746035  0.07815285    -0.02900
H2360       H  0.77743653  0.34682659  0.09248012     0.09300
H2361       H  0.73456353  0.32230947  0.16483687     0.07300
Br2362     Br  0.78165629  0.31587960  0.17847015    -0.03300
C2363       C  0.60898603  0.21977876  0.24005141    -0.09900
C2364       C  0.63018735  0.23074954  0.22995763     0.06300
C2365       C  0.64986717  0.23226543  0.24434500    -0.03700
C2366       C  0.64796739  0.22241130  0.26770791    -0.08100
C2367       C  0.62690470  0.21093696  0.27766781     0.05400
C2368       C  0.60719777  0.20994917  0.26356814    -0.03200
Br2369     Br  0.57772086  0.19241308  0.27482574    -0.02900
H2370       H  0.59362618  0.21857131  0.22958766     0.09300
H2371       H  0.66330859  0.22337138  0.27823462     0.07300
Br2372     Br  0.68042684  0.24520175  0.23383963    -0.03300
C2373       C  0.26817079  0.87628593  0.37807213    -0.09900
C2374       C  0.27766370  0.83509831  0.37655625     0.06300
C2375       C  0.26292186  0.79913913  0.37580026    -0.03700
C2376       C  0.23911761  0.80499035  0.37553167    -0.08100
C2377       C  0.22968225  0.84630501  0.37565006     0.05400
C2378       C  0.24436627  0.88211882  0.37751960    -0.03200
Br2379     Br  0.23275996  0.93945712  0.38021368    -0.02900
H2380       H  0.27931258  0.90407215  0.37907111     0.09300
H2381       H  0.22794894  0.77723167  0.37459982     0.07300
Br2382     Br  0.27431117  0.74135421  0.37569709    -0.03300
C2383       C  0.49104903  0.70995195  0.40824261    -0.09900
C2384       C  0.48163590  0.72967836  0.38881344     0.06300
C2385       C  0.49625158  0.74364617  0.37108568    -0.03700
C2386       C  0.51982826  0.73621090  0.37255902    -0.08100
C2387       C  0.52950095  0.71498651  0.39162653     0.05400
C2388       C  0.51465361  0.70224206  0.40985865    -0.03200
Br2389     Br  0.52453492  0.67411014  0.43762212    -0.02900
H2390       H  0.47988312  0.70018051  0.42222009     0.09300
H2391       H  0.53056298  0.74696530  0.35847750     0.07300
Br2392     Br  0.48511800  0.77571443  0.34519769    -0.03300
C2393       C  0.40003351  0.51515557  0.37744678    -0.09900
C2394       C  0.37829334  0.49531229  0.37866458     0.06300
C2395       C  0.35860667  0.52146031  0.37978363    -0.03700
C2396       C  0.36094474  0.56616274  0.38006216    -0.08100
C2397       C  0.38263687  0.58597193  0.37897833     0.05400
C2398       C  0.40235327  0.55994777  0.37767241    -0.03200
Br2399     Br  0.43280769  0.58354095  0.37777649    -0.02900
H2400       H  0.41540225  0.49563966  0.37660749     0.09300
H2401       H  0.34557991  0.58571445  0.38075961     0.07300
Br2402     Br  0.32805029  0.49841763  0.37918318    -0.03300
C2403       C  0.38492995  0.06594011  0.35894749    -0.09900
C2404       C  0.38270349  0.08601918  0.38039022     0.06300
C2405       C  0.37889591  0.06037350  0.40011854    -0.03700
C2406       C  0.37703138  0.01582536  0.39795923    -0.08100
C2407       C  0.37903839  0.99575501  0.37647034     0.05400
C2408       C  0.38306541  0.02144222  0.35678132    -0.03200
Br2409     Br  0.38477447  0.99874130  0.32614003    -0.02900
H2410       H  0.38739241  0.08510471  0.34357975     0.09300
H2411       H  0.37453106  0.99664122  0.41330988     0.07300
Br2412     Br  0.37720556  0.08348162  0.43069539    -0.03300
C2413       C  0.23709127  0.29596368  0.37824917    -0.09900
C2414       C  0.22684031  0.33646529  0.37701389     0.06300
C2415       C  0.24078121  0.37353188  0.37661660    -0.03700
C2416       C  0.26459790  0.36968079  0.37738599    -0.08100
C2417       C  0.27487129  0.32923431  0.37759263     0.05400
C2418       C  0.26099297  0.29207795  0.37809985    -0.03200
Br2419     Br  0.27376931  0.23538272  0.37858564    -0.02900
H2420       H  0.22652467  0.26734135  0.37840032     0.09300
H2421       H  0.27514827  0.39831657  0.37678140     0.07300
Br2422     Br  0.22836613  0.43032631  0.37459818    -0.03300
C2423       C  0.48541026  0.18668897  0.39106514    -0.09900
C2424       C  0.47854186  0.22908530  0.38743907     0.06300
C2425       C  0.49510272  0.26129184  0.38382866    -0.03700
C2426       C  0.51838111  0.25069495  0.38405410    -0.08100
C2427       C  0.52537984  0.20838492  0.38826717     0.05400
C2428       C  0.50867390  0.17612381  0.39164786    -0.03200
Br2429     Br  0.51643702  0.11675844  0.39566914    -0.02900
H2430       H  0.47263827  0.16180333  0.39352440     0.09300
H2431       H  0.53105059  0.27554484  0.38103967     0.07300
Br2432     Br  0.48663919  0.31964453  0.37741148    -0.03300
C2433       C  0.24241134  0.58398337  0.15250349    -0.09900
C2434       C  0.23080800  0.58703684  0.13133997     0.06300
C2435       C  0.24392621  0.58627440  0.11085196    -0.03700
C2436       C  0.26797905  0.58518070  0.11207077    -0.08100
C2437       C  0.27938718  0.58346292  0.13336780     0.05400
C2438       C  0.26619994  0.58096127  0.15365344    -0.03200
Br2439     Br  0.27924850  0.57029367  0.18349023    -0.02900
H2440       H  0.23290162  0.58293898  0.16851498     0.09300
H2441       H  0.27779959  0.58630613  0.09625050     0.07300
Br2442     Br  0.23049554  0.58387476  0.08074943    -0.03300
C2443       C  0.49325629  0.68648718  0.11259339    -0.09900
C2444       C  0.47776839  0.72005946  0.11729661     0.06300
C2445       C  0.48656480  0.76092929  0.12275780    -0.03700
C2446       C  0.51039170  0.76743140  0.12353565    -0.08100
C2447       C  0.52574896  0.73356687  0.11931676     0.05400
C2448       C  0.51704032  0.69289953  0.11373182    -0.03200
Br2449     Br  0.53706620  0.64572899  0.10696092    -0.02900
H2450       H  0.48681210  0.65482172  0.10841219     0.09300
H2451       H  0.51699277  0.79913031  0.12739615     0.07300
Br2452     Br  0.46687942  0.80933117  0.12784442    -0.03300
C2453       C  0.39973041  0.70894761  0.26691869    -0.09900
C2454       C  0.37893836  0.72002637  0.27793815     0.06300
C2455       C  0.35868350  0.72137554  0.26433847    -0.03700
C2456       C  0.35974697  0.71371003  0.24074899    -0.08100
C2457       C  0.38041360  0.70367394  0.22973685     0.05400
C2458       C  0.40055621  0.70054481  0.24309071    -0.03200
Br2459     Br  0.42906613  0.68178994  0.22996982    -0.02900
H2460       H  0.41543595  0.70685785  0.27680892     0.09300
H2461       H  0.34400918  0.71522018  0.23083876     0.07300
Br2462     Br  0.32826978  0.73105229  0.27617383    -0.03300
C2463       C  0.37845210  0.87033138  0.14729906    -0.09900
C2464       C  0.37255293  0.84893915  0.12695474     0.06300
C2465       C  0.36524168  0.87377349  0.10782836    -0.03700
C2466       C  0.36484077  0.91868122  0.10927178    -0.08100
C2467       C  0.37142232  0.93999683  0.12947912     0.05400
C2468       C  0.37763675  0.91502854  0.14885713    -0.03200
Br2469     Br  0.38390223  0.93901100  0.17860966    -0.02900
H2470       H  0.38332809  0.85207882  0.16238989     0.09300
H2471       H  0.35995223  0.93705736  0.09422843     0.07300
Br2472     Br  0.35670534  0.84947604  0.07869206    -0.03300
C2473       C  0.40303022  0.36983322  0.12836852    -0.09900
C2474       C  0.38191950  0.34911429  0.13163452     0.06300
C2475       C  0.36186706  0.37399469  0.13428776    -0.03700
C2476       C  0.36306055  0.41866580  0.13260274    -0.08100
C2477       C  0.38408396  0.43944129  0.12879013     0.05400
C2478       C  0.40428942  0.41461101  0.12700224    -0.03200
Br2479     Br  0.43385185  0.43960929  0.12125672    -0.02900
H2480       H  0.41852373  0.35104111  0.12616255     0.09300
H2481       H  0.34753148  0.43736208  0.13480270     0.07300
Br2482     Br  0.33268159  0.34903004  0.14175796    -0.03300
C2483       C  0.26287228  0.10489110  0.15086853    -0.09900
C2484       C  0.27498782  0.10368373  0.12996581     0.06300
C2485       C  0.26231333  0.10275674  0.10919914    -0.03700
C2486       C  0.23824824  0.10180605  0.10989017    -0.08100
C2487       C  0.22628208  0.10228498  0.13090363     0.05400
C2488       C  0.23897535  0.10475261  0.15155256    -0.03200
Br2489     Br  0.22517545  0.11046101  0.18147079    -0.02900
H2490       H  0.27205352  0.10638609  0.16704460     0.09300
H2491       H  0.22885587  0.10017749  0.09384018     0.07300
Br2492     Br  0.27625102  0.10509755  0.07929058    -0.03300
C2493       C  0.48648313  0.24982578  0.11760430    -0.09900
C2494       C  0.48013532  0.20678105  0.12014213     0.06300
C2495       C  0.49728251  0.17549386  0.12356170    -0.03700
C2496       C  0.52038521  0.18770922  0.12452762    -0.08100
C2497       C  0.52681984  0.23067658  0.12141459     0.05400
C2498       C  0.50958964  0.26194826  0.11793623    -0.03200
Br2499     Br  0.51630390  0.32197919  0.11474701    -0.02900
H2500       H  0.47338372  0.27410764  0.11523070     0.09300
H2501       H  0.53340941  0.16343274  0.12728504     0.07300
Br2502     Br  0.49008584  0.11591210  0.12762015    -0.03300
C2503       C  0.39091860  0.18185754  0.24413754    -0.09900
C2504       C  0.37903982  0.20930460  0.22918359     0.06300
C2505       C  0.36684483  0.24420484  0.23831815    -0.03700
C2506       C  0.36620304  0.25071062  0.26211784    -0.08100
C2507       C  0.37756575  0.22274569  0.27739459     0.05400
C2508       C  0.39016479  0.18801306  0.26806268    -0.03200
Br2509     Br  0.40482767  0.14544844  0.28683417    -0.02900
H2510       H  0.40007916  0.15449874  0.23722000     0.09300
H2511       H  0.35674229  0.27799884  0.26868804     0.07300
Br2512     Br  0.35099817  0.28404541  0.21880042    -0.03300
C2513       C  0.14169075  0.82070509  0.48673808    -0.09900
C2514       C  0.12050541  0.82068567  0.47504552     0.06300
C2515       C  0.10015484  0.81855923  0.48836163    -0.03700
C2516       C  0.10133787  0.81928040  0.51237939    -0.08100
C2517       C  0.12237647  0.82291074  0.52405130     0.05400
C2518       C  0.14282401  0.82214016  0.51088241    -0.03200
Br2519     Br  0.17281334  0.82764702  0.52423242    -0.02900
H2520       H  0.15756146  0.82252374  0.47706405     0.09300
H2521       H  0.08541502  0.81877431  0.52202691     0.07300
Br2522     Br  0.06983105  0.81617538  0.47537226    -0.03300
C2523       C  0.14231711  0.32375440  0.51617486    -0.09900
C2524       C  0.12137721  0.32125347  0.52812502     0.06300
C2525       C  0.10099308  0.31541972  0.51523360    -0.03700
C2526       C  0.10179529  0.31499741  0.49114204    -0.08100
C2527       C  0.12249028  0.32108792  0.47914151     0.05400
C2528       C  0.14302783  0.32459662  0.49203755    -0.03200
Br2529     Br  0.17218000  0.33751730  0.47829553    -0.02900
H2530       H  0.15812737  0.32870158  0.52561273     0.09300
H2531       H  0.08586646  0.31191476  0.48167333     0.07300
Br2532     Br  0.07122709  0.30927920  0.52916606    -0.03300
C2533       C  0.10372876  0.61521322  0.63008918    -0.09900
C2534       C  0.12488421  0.59390311  0.62967903     0.06300
C2535       C  0.14525714  0.61826958  0.62801366    -0.03700
C2536       C  0.14416252  0.66292485  0.62614231    -0.08100
C2537       C  0.12301924  0.68436893  0.62620221     0.05400
C2538       C  0.10257991  0.65992227  0.62826185    -0.03200
Br2539     Br  0.07241204  0.68470883  0.62715379    -0.02900
H2540       H  0.08794152  0.59687768  0.63104627     0.09300
H2541       H  0.16000966  0.68107532  0.62526168     0.07300
Br2542     Br  0.17517238  0.59281250  0.62977862    -0.03300
C2543       C  0.10908610  0.16340042  0.63041349    -0.09900
C2544       C  0.13034993  0.18455346  0.62853326     0.06300
C2545       C  0.15045792  0.15976585  0.62622460    -0.03700
C2546       C  0.14884691  0.11493383  0.62487023    -0.08100
C2547       C  0.12750207  0.09391998  0.62652899     0.05400
C2548       C  0.10750299  0.11870746  0.62955821    -0.03200
Br2549     Br  0.07734393  0.09388160  0.63128733    -0.02900
H2550       H  0.09342497  0.18184126  0.63224741     0.09300
H2551       H  0.16444270  0.09628670  0.62308955     0.07300
Br2552     Br  0.18055422  0.18486879  0.62695850    -0.03300
C2553       C  0.10620679  0.62406399  0.98935232    -0.09900
C2554       C  0.12680089  0.61521818  0.97758076     0.06300
C2555       C  0.14704016  0.60982249  0.99069478    -0.03700
C2556       C  0.14604809  0.61080324  0.01485342    -0.08100
C2557       C  0.12511458  0.61630134  0.02656511     0.05400
C2558       C  0.10521253  0.62481889  0.01344464    -0.03200
Br2559     Br  0.07611564  0.63794281  0.02733018    -0.02900
H2560       H  0.09052248  0.62920767  0.97973167     0.09300
H2561       H  0.16152451  0.60404939  0.02451851     0.07300
Br2562     Br  0.17601837  0.59531292  0.97706112    -0.03300
C2563       C  0.15339245  0.46796402  0.76579593    -0.09900
C2564       C  0.13252528  0.47856174  0.77638272     0.06300
C2565       C  0.11276753  0.48303530  0.76256975    -0.03700
C2566       C  0.11406431  0.47550477  0.73887488    -0.08100
C2567       C  0.13489691  0.46425147  0.72819063     0.05400
C2568       C  0.15488091  0.46122688  0.74208077    -0.03200
Br2569     Br  0.18523388  0.45055155  0.73034894    -0.02900
H2570       H  0.16886881  0.46561228  0.77605734     0.09300
H2571       H  0.09853704  0.47853839  0.72877619     0.07300
Br2572     Br  0.08394806  0.50300838  0.77440490    -0.03300
C2573       C  0.10935984  0.13146912  0.00996408    -0.09900
C2574       C  0.12708475  0.11059472  0.02181281     0.06300
C2575       C  0.14511659  0.09152913  0.00926288    -0.03700
C2576       C  0.14490222  0.09284939  0.98520948    -0.08100
C2577       C  0.12658396  0.11193069  0.97334595     0.05400
C2578       C  0.10902602  0.13237223  0.98591245    -0.03200
Br2579     Br  0.08419138  0.16169017  0.97099146    -0.02900
H2580       H  0.09532852  0.14586527  0.01945871     0.09300
H2581       H  0.15824050  0.07623077  0.97574879     0.07300
Br2582     Br  0.16856972  0.05796624  0.02393036    -0.03300
C2583       C  0.10848881  0.77772970  0.87783085    -0.09900
C2584       C  0.12956732  0.75663451  0.87456241     0.06300
C2585       C  0.14936169  0.78096443  0.86985317    -0.03700
C2586       C  0.14793144  0.82575148  0.86912117    -0.08100
C2587       C  0.12687607  0.84680604  0.87252190     0.05400
C2588       C  0.10702560  0.82245862  0.87697708    -0.03200
Br2589     Br  0.07796126  0.84869961  0.88364718    -0.02900
H2590       H  0.09310270  0.75925698  0.88131219     0.09300
H2591       H  0.16328542  0.84427425  0.86558277     0.07300
Br2592     Br  0.17819178  0.75457739  0.86250618    -0.03300
C2593       C  0.14899887  0.27783606  0.87364256    -0.09900
C2594       C  0.12789024  0.25631944  0.87197077     0.06300
C2595       C  0.10757928  0.28087014  0.86978546    -0.03700
C2596       C  0.10870214  0.32569800  0.86963552    -0.08100
C2597       C  0.12973030  0.34724163  0.87181077     0.05400
C2598       C  0.15009998  0.32276834  0.87337914    -0.03200
Br2599     Br  0.18001708  0.34851225  0.87362786    -0.02900
H2600       H  0.16479572  0.25959405  0.87467993     0.09300
H2601       H  0.09288344  0.34387377  0.86855723     0.07300
Br2602     Br  0.07750356  0.25566375  0.86857469    -0.03300
C2603       C  0.11275114  0.96323381  0.76303173    -0.09900
C2604       C  0.13382261  0.97357596  0.77349802     0.06300
C2605       C  0.15374927  0.97507920  0.75953132    -0.03700
C2606       C  0.15200357  0.96882877  0.73580501    -0.08100
C2607       C  0.13086686  0.95988017  0.72527626     0.05400
C2608       C  0.11116378  0.95595877  0.73929386    -0.03200
Br2609     Br  0.08203351  0.93722806  0.72762561    -0.02900
H2610       H  0.09727618  0.96107898  0.77330610     0.09300
H2611       H  0.16748767  0.97035501  0.72548880     0.07300
Br2612     Br  0.18426266  0.98281369  0.77140727    -0.03300
C2613       C  0.86216790  0.83447241  0.98728094    -0.09900
C2614       C  0.88165594  0.82051748  0.97523701     0.06300
C2615       C  0.90004768  0.80229138  0.98756796    -0.03700
C2616       C  0.89950830  0.80143753  0.01163324    -0.08100
C2617       C  0.88065294  0.81796712  0.02376836     0.05400
C2618       C  0.86159261  0.83369576  0.01134352    -0.03200
Br2619     Br  0.83583693  0.86055914  0.02613241    -0.02900
H2620       H  0.84801226  0.84897324  0.97802437     0.09300
H2621       H  0.91421535  0.78915758  0.02093993     0.07300
Br2622     Br  0.92619369  0.77801766  0.97228837    -0.03300
C2623       C  0.98705173  0.99822684  0.88092008    -0.09900
C2624       C  0.98181278  0.95440113  0.88180966     0.06300
C2625       C  0.99966990  0.92393332  0.88117185    -0.03700
C2626       C  0.02243626  0.93781470  0.88010576    -0.08100
C2627       C  0.02764255  0.98168868  0.87988476     0.05400
C2628       C  0.00976923  0.01206403  0.88002864    -0.03200
Br2629     Br  0.01527762  0.07256942  0.87755730    -0.02900
H2630       H  0.97338285  0.02181153  0.88093213     0.09300
H2631       H  0.03612891  0.91433033  0.87962196     0.07300
Br2632     Br  0.99399387  0.86333054  0.88027781    -0.03300
C2633       C  0.90263639  0.30192364  0.01200725    -0.09900
C2634       C  0.88388497  0.31900839  0.02412133     0.06300
C2635       C  0.86499721  0.33516371  0.01159473    -0.03700
C2636       C  0.86540206  0.33494553  0.98753748    -0.08100
C2637       C  0.88473519  0.32038574  0.97545411     0.05400
C2638       C  0.90317072  0.30240725  0.98788956    -0.03200
Br2639     Br  0.92937043  0.27794732  0.97281995    -0.02900
H2640       H  0.91727213  0.28947910  0.02136070     0.09300
H2641       H  0.85126447  0.34947605  0.97826482     0.07300
Br2642     Br  0.83991134  0.36461341  0.02610422    -0.03300
C2643       C  0.88670644  0.61665281  0.85471226    -0.09900
C2644       C  0.88197252  0.59551992  0.87550707     0.06300
C2645       C  0.87554655  0.62056556  0.89485161    -0.03700
C2646       C  0.87422443  0.66523059  0.89304017    -0.08100
C2647       C  0.87918632  0.68634924  0.87234523     0.05400
C2648       C  0.88532161  0.66138870  0.85292548    -0.03200
Br2649     Br  0.89099308  0.68552447  0.82304761    -0.02900
H2650       H  0.89112926  0.59822276  0.83955183     0.09300
H2651       H  0.86984458  0.68370092  0.90820176     0.07300
Br2652     Br  0.86931964  0.59707581  0.92481434    -0.03300
C2653       C  0.89958511  0.16452782  0.87083500    -0.09900
C2654       C  0.87872380  0.18611080  0.87454705     0.06300
C2655       C  0.85871665  0.16194535  0.87887647    -0.03700
C2656       C  0.85998158  0.11714381  0.87959529    -0.08100
C2657       C  0.88090888  0.09560383  0.87599638     0.05400
C2658       C  0.90088980  0.11985421  0.87167577    -0.03200
Br2659     Br  0.93080829  0.09449056  0.86854700    -0.02900
H2660       H  0.91519427  0.18260812  0.86780105     0.09300
H2661       H  0.84441589  0.09899046  0.88271572     0.07300
Br2662     Br  0.82902253  0.18783107  0.88263371    -0.03300
C2663       C  0.98783003  0.50099067  0.87848566    -0.09900
C2664       C  0.98223369  0.45755164  0.88160191     0.06300
C2665       C  0.00004107  0.42730539  0.88459442    -0.03700
C2666       C  0.02286378  0.44091994  0.88474635    -0.08100
C2667       C  0.02831302  0.48440738  0.88239722     0.05400
C2668       C  0.01068427  0.51462003  0.87908324    -0.03200
Br2669     Br  0.01705949  0.57440557  0.87436904    -0.02900
H2670       H  0.97436440  0.52447592  0.87590659     0.09300
H2671       H  0.03644078  0.41748043  0.88686726     0.07300
Br2672     Br  0.99453821  0.36678258  0.88723299    -0.03300
C2673       C  0.90507678  0.61770608  0.51382907    -0.09900
C2674       C  0.88367336  0.61665137  0.52515582     0.06300
C2675       C  0.86369147  0.62138137  0.51152038    -0.03700
C2676       C  0.86538837  0.62242719  0.48739203    -0.08100
C2677       C  0.88670200  0.61911015  0.47611535     0.05400
C2678       C  0.90677494  0.61925802  0.48979548    -0.03200
Br2679     Br  0.93719336  0.62164977  0.47701765    -0.02900
H2680       H  0.92079769  0.61598293  0.52373164     0.09300
H2681       H  0.84970930  0.62309842  0.47739796     0.07300
Br2682     Br  0.83330487  0.62275026  0.52403283    -0.03300
C2683       C  0.98524240  0.43811529  0.62313695    -0.09900
C2684       C  0.97943406  0.48156952  0.62112688     0.06300
C2685       C  0.99696049  0.51276548  0.62126543    -0.03700
C2686       C  0.01998732  0.49998767  0.62244888    -0.08100
C2687       C  0.02579909  0.45636220  0.62375453     0.05400
C2688       C  0.00819044  0.42537784  0.62453214    -0.03200
Br2689     Br  0.01450277  0.36562691  0.62927928    -0.02900
H2690       H  0.97185117  0.41401146  0.62381376     0.09300
H2691       H  0.03337909  0.52412722  0.62234611     0.07300
Br2692     Br  0.99017593  0.57304304  0.62190851    -0.03300
C2693       C  0.88672692  0.51200030  0.74378094    -0.09900
C2694       C  0.87593023  0.48343518  0.72860122     0.06300
C2695       C  0.86441378  0.44754331  0.73742497    -0.03700
C2696       C  0.86376096  0.44055600  0.76118259    -0.08100
C2697       C  0.87469432  0.46879205  0.77665384     0.05400
C2698       C  0.88635259  0.50491919  0.76762394    -0.03200
Br2699     Br  0.90108381  0.54689931  0.78672177    -0.02900
H2700       H  0.89527159  0.54024146  0.73704750     0.09300
H2701       H  0.85500516  0.41224490  0.76752146     0.07300
Br2702     Br  0.84954763  0.40717269  0.71748815    -0.03300
C2703       C  0.88049637  0.14011834  0.51272872    -0.09900
C2704       C  0.88286161  0.10066900  0.52443887     0.06300
C2705       C  0.88518078  0.06282804  0.51134683    -0.03700
C2706       C  0.88555380  0.06467528  0.48745105    -0.08100
C2707       C  0.88361465  0.10366077  0.47561886     0.05400
C2708       C  0.88099744  0.14180478  0.48838793    -0.03200
Br2709     Br  0.87998741  0.19644540  0.47330517    -0.02900
H2710       H  0.87902651  0.16960185  0.52245763     0.09300
H2711       H  0.88727768  0.03496751  0.47793149     0.07300
Br2712     Br  0.88704307  0.00675996  0.52495268    -0.03300
C2713       C  0.85667238  0.77597396  0.62989426    -0.09900
C2714       C  0.87717931  0.75439165  0.62472393     0.06300
C2715       C  0.89744587  0.77853940  0.62148917    -0.03700
C2716       C  0.89705918  0.82321815  0.62378105    -0.08100
C2717       C  0.87666050  0.84476697  0.62917873     0.05400
C2718       C  0.85631526  0.82078797  0.63223052    -0.03200
Br2719     Br  0.82804768  0.84758184  0.64123460    -0.02900
H2720       H  0.84108170  0.75784648  0.63291137     0.09300
H2721       H  0.91266551  0.84132355  0.62077694     0.07300
Br2722     Br  0.92592541  0.75231979  0.61270327    -0.03300
C2723       C  0.85913384  0.32228368  0.63085758    -0.09900
C2724       C  0.88012722  0.34442802  0.63284244     0.06300
C2725       C  0.90065979  0.32062919  0.63412868    -0.03700
C2726       C  0.89991148  0.27589244  0.63281855    -0.08100
C2727       C  0.87901359  0.25384607  0.63016061     0.05400
C2728       C  0.85840111  0.27742471  0.62967151    -0.03200
Br2729     Br  0.82881296  0.25021494  0.62868672    -0.02900
H2730       H  0.84315860  0.34004075  0.63019862     0.09300
H2731       H  0.91591213  0.25819275  0.63339392     0.07300
Br2732     Br  0.93040415  0.34704538  0.63585835    -0.03300
C2733       C  0.98416793  0.93391505  0.62556002    -0.09900
C2734       C  0.97847582  0.97749498  0.62367756     0.06300
C2735       C  0.99608411  0.00820781  0.62112001    -0.03700
C2736       C  0.01893713  0.99509311  0.62066541    -0.08100
C2737       C  0.02459938  0.95156400  0.62190441     0.05400
C2738       C  0.00708952  0.92070106  0.62435322    -0.03200
Br2739     Br  0.01366175  0.86056263  0.62682256    -0.02900
H2740       H  0.97073860  0.91008851  0.62742002     0.09300
H2741       H  0.03236905  0.01895510  0.61888838     0.07300
Br2742     Br  0.99009326  0.06857206  0.61864046    -0.03300
C2743       C  0.89160727  0.96651212  0.73938036    -0.09900
C2744       C  0.87221185  0.98678156  0.72982498     0.06300
C2745       C  0.85448645  0.00026085  0.74511072    -0.03700
C2746       C  0.85646935  0.99271714  0.76876377    -0.08100
C2747       C  0.87581018  0.97252361  0.77803380     0.05400
C2748       C  0.89346915  0.95921285  0.76308441    -0.03200
Br2749     Br  0.91952259  0.92716860  0.77370817    -0.02900
H2750       H  0.90546838  0.95580318  0.72837700     0.09300
H2751       H  0.84259125  0.00232809  0.78007043     0.07300
Br2752     Br  0.82662530  0.02851166  0.73582877    -0.03300
C2753       C  0.39980567  0.87271375  0.51615108    -0.09900
C2754       C  0.37927019  0.86218482  0.52756612     0.06300
C2755       C  0.35930278  0.85545552  0.51420960    -0.03700
C2756       C  0.36056907  0.85736259  0.49006927    -0.08100
C2757       C  0.38158440  0.86464014  0.47871558     0.05400
C2758       C  0.40114483  0.87383728  0.49213596    -0.03200
Br2759     Br  0.43038542  0.88760030  0.47876574    -0.02900
H2760       H  0.41525818  0.87871496  0.52600279     0.09300
H2761       H  0.34538098  0.84974801  0.48013094     0.07300
Br2762     Br  0.33062846  0.83765346  0.52746078    -0.03300
C2763       C  0.26459836  0.84640600  0.61306553    -0.09900
C2764       C  0.27557491  0.84700430  0.63461928     0.06300
C2765       C  0.26192188  0.84251462  0.65461537    -0.03700
C2766       C  0.23832773  0.83594467  0.65267677    -0.08100
C2767       C  0.22724488  0.83550129  0.63120628     0.05400
C2768       C  0.24071655  0.84119461  0.61120116    -0.03200
Br2769     Br  0.22770641  0.84529113  0.58099165    -0.02900
H2770       H  0.27465437  0.84957810  0.59747684     0.09300
H2771       H  0.22835292  0.83297691  0.66834378     0.07300
Br2772     Br  0.27368725  0.84812691  0.68537857    -0.03300
C2773       C  0.40263330  0.37298952  0.51430660    -0.09900
C2774       C  0.38239698  0.36424021  0.52662091     0.06300
C2775       C  0.36178120  0.35864263  0.51408968    -0.03700
C2776       C  0.36201409  0.36020321  0.48993039    -0.08100
C2777       C  0.38255557  0.36621551  0.47760146     0.05400
C2778       C  0.40294734  0.37383977  0.49021454    -0.03200
Br2779     Br  0.43209214  0.38477663  0.47582901    -0.02900
H2780       H  0.41859636  0.37787879  0.52349552     0.09300
H2781       H  0.34625777  0.35343332  0.48073355     0.07300
Br2782     Br  0.33328530  0.34293640  0.52845618    -0.03300
C2783       C  0.38404585  0.52939783  0.65041350    -0.09900
C2784       C  0.38337530  0.50746769  0.62929259     0.06300
C2785       C  0.38516003  0.53107221  0.60872932    -0.03700
C2786       C  0.38627881  0.57588572  0.60956823    -0.08100
C2787       C  0.38616081  0.59795529  0.63068110     0.05400
C2788       C  0.38540352  0.57417554  0.65129272    -0.03200
Br2789     Br  0.38448800  0.60078667  0.68106231    -0.02900
H2790       H  0.38310257  0.51155968  0.66639230     0.09300
H2791       H  0.38734531  0.59366606  0.59357913     0.07300
Br2792     Br  0.38783177  0.50380504  0.57925170    -0.03300
C2793       C  0.37787986  0.02934600  0.64984937    -0.09900
C2794       C  0.37391810  0.00701441  0.62917646     0.06300
C2795       C  0.37155945  0.03059577  0.60865208    -0.03700
C2796       C  0.37346428  0.07535864  0.60910075    -0.08100
C2797       C  0.37806068  0.09768446  0.62966332     0.05400
C2798       C  0.37993164  0.07411109  0.65029027    -0.03200
Br2799     Br  0.38422557  0.10088680  0.67971715    -0.02900
H2800       H  0.37957924  0.01174633  0.66583753     0.09300
H2801       H  0.37193700  0.09279160  0.59304673     0.07300
Br2802     Br  0.36789798  0.00357122  0.57920897    -0.03300
C2803       C  0.26651834  0.34574030  0.65237185    -0.09900
C2804       C  0.27837445  0.35326306  0.63164984     0.06300
C2805       C  0.26547877  0.35503554  0.61101733    -0.03700
C2806       C  0.24153525  0.34925784  0.61163140    -0.08100
C2807       C  0.22998058  0.34123976  0.63242589     0.05400
C2808       C  0.24290479  0.33904292  0.65289692    -0.03200
Br2809     Br  0.22968369  0.32495927  0.68226847    -0.02900
H2810       H  0.27578995  0.34365000  0.66848136     0.09300
H2811       H  0.23183142  0.35208398  0.59581488     0.07300
Br2812     Br  0.27907993  0.36354183  0.58133814    -0.03300
C2813       C  0.36301864  0.57953607  0.99025304    -0.09900
C2814       C  0.38406637  0.57479731  0.97870336     0.06300
C2815       C  0.40406413  0.56667848  0.99174791    -0.03700
C2816       C  0.40297446  0.56679294  0.01573600    -0.08100
C2817       C  0.38230795  0.57518941  0.02727668     0.05400
C2818       C  0.36203440  0.58062638  0.01430273    -0.03200
Br2819     Br  0.33332069  0.59697902  0.02797718    -0.02900
H2820       H  0.34754230  0.58631760  0.98058759     0.09300
H2821       H  0.41866004  0.56240046  0.02546939     0.07300
Br2822     Br  0.43360089  0.55652775  0.97807223    -0.03300
C2823       C  0.26828936  0.58710599  0.85233233    -0.09900
C2824       C  0.27908319  0.59784995  0.87298557     0.06300
C2825       C  0.26557777  0.61194090  0.89164514    -0.03700
C2826       C  0.24165862  0.61438784  0.88939251    -0.08100
C2827       C  0.23064946  0.60329836  0.86868040     0.05400
C2828       C  0.24453705  0.58978354  0.84985311    -0.03200
Br2829     Br  0.23335605  0.57533137  0.81966847    -0.02900
H2830       H  0.27859224  0.57741310  0.83769189     0.09300
H2831       H  0.23165702  0.62475501  0.90407866     0.07300
Br2832     Br  0.27880276  0.63117169  0.92003925    -0.03300
C2833       C  0.35637485  0.72501686  0.76769626    -0.09900
C2834       C  0.37766379  0.72099570  0.77891416     0.06300
C2835       C  0.39782132  0.72168200  0.76525900    -0.03700
C2836       C  0.39628966  0.72725588  0.74136346    -0.08100
C2837       C  0.37498959  0.73143046  0.73025697     0.05400
C2838       C  0.35481383  0.72969955  0.74382600    -0.03200
Br2839     Br  0.32431509  0.73094976  0.73117751    -0.02900
H2840       H  0.34058889  0.72370100  0.77753985     0.09300
H2841       H  0.41200396  0.72851927  0.73140853     0.07300
Br2842     Br  0.42799647  0.71199156  0.77729710    -0.03300
C2843       C  0.39776379  0.06430335  0.99033461    -0.09900
C2844       C  0.37897494  0.08286120  0.97889369     0.06300
C2845       C  0.35990074  0.09654476  0.99194263    -0.03700
C2846       C  0.36035433  0.09328871  0.01595883    -0.08100
C2847       C  0.37977330  0.07740641  0.02745457     0.05400
C2848       C  0.39825290  0.06139316  0.01438612    -0.03200
Br2849     Br  0.42450526  0.03544608  0.02862958    -0.02900
H2850       H  0.41243894  0.05320606  0.98054684     0.09300
H2851       H  0.34616085  0.10636615  0.02576294     0.07300
Br2852     Br  0.33423813  0.12568603  0.97834182    -0.03300
C2853       C  0.38352245  0.92131691  0.85759030    -0.09900
C2854       C  0.37813042  0.94352292  0.87797138     0.06300
C2855       C  0.37446114  0.91982874  0.89829835    -0.03700
C2856       C  0.37638299  0.87513619  0.89790638    -0.08100
C2857       C  0.38194040  0.85284792  0.87759001     0.05400
C2858       C  0.38539999  0.87653881  0.85718775    -0.03200
Br2859     Br  0.39148527  0.85008119  0.82799807    -0.02900
H2860       H  0.38622622  0.93896200  0.84175104     0.09300
H2861       H  0.37377123  0.85765188  0.91380982     0.07300
Br2862     Br  0.36827840  0.94624774  0.92750197    -0.03300
C2863       C  0.38088871  0.37407771  0.85798002    -0.09900
C2864       C  0.38148279  0.35305739  0.87928509     0.06300
C2865       C  0.37999839  0.37775944  0.89964864    -0.03700
C2866       C  0.37771297  0.42239432  0.89831049    -0.08100
C2867       C  0.37710453  0.44335793  0.87698170     0.05400
C2868       C  0.37862149  0.41867512  0.85666298    -0.03200
Br2869     Br  0.37628342  0.44358087  0.82656012    -0.02900
H2870       H  0.38148724  0.35560113  0.84221270     0.09300
H2871       H  0.37717729  0.44096100  0.91405129     0.07300
Br2872     Br  0.38246640  0.35302171  0.92982585    -0.03300
C2873       C  0.24212224  0.09250970  0.84848341    -0.09900
C2874       C  0.22981063  0.10158736  0.86878084     0.06300
C2875       C  0.24228411  0.10537504  0.88962080    -0.03700
C2876       C  0.26621657  0.10074093  0.88954897    -0.08100
C2877       C  0.27824358  0.09195636  0.86917350     0.05400
C2878       C  0.26585864  0.08714255  0.84856783    -0.03200
Br2879     Br  0.28020423  0.07123195  0.82004960    -0.02900
H2880       H  0.23321024  0.08848856  0.83228474     0.09300
H2881       H  0.27556269  0.10524686  0.90547379     0.07300
Br2882     Br  0.22838659  0.11525394  0.91905324    -0.03300
C2883       C  0.35594164  0.23134399  0.76667637    -0.09900
C2884       C  0.37636534  0.21803069  0.77718021     0.06300
C2885       C  0.39554014  0.20912858  0.76313635    -0.03700
C2886       C  0.39430300  0.21575524  0.73926561    -0.08100
C2887       C  0.37393514  0.23009752  0.72866289     0.05400
C2888       C  0.35437902  0.23690689  0.74286812    -0.03200
Br2889     Br  0.32431321  0.25154519  0.73163385    -0.02900
H2890       H  0.34079316  0.23672619  0.77712169     0.09300
H2891       H  0.40942778  0.20941172  0.72897501     0.07300
Br2892     Br  0.42307580  0.18395705  0.77521463    -0.03300
C2893       C  0.64567123  0.58552673  0.51608883    -0.09900
C2894       C  0.62549621  0.57389702  0.52776727     0.06300
C2895       C  0.60674348  0.55816460  0.51497014    -0.03700
C2896       C  0.60781922  0.55734218  0.49090020    -0.08100
C2897       C  0.62737068  0.57205960  0.47912232     0.05400
C2898       C  0.64665931  0.58533852  0.49201919    -0.03200
Br2899     Br  0.67347038  0.60998644  0.47799245    -0.02900
H2900       H  0.66015344  0.59808468  0.52564656     0.09300
H2901       H  0.59289586  0.54695214  0.48128475     0.07300
Br2902     Br  0.57914101  0.53805034  0.52945328    -0.03300
C2903       C  0.74107428  0.59718286  0.65396828    -0.09900
C2904       C  0.72923674  0.59195235  0.63305540     0.06300
C2905       C  0.74211969  0.59347064  0.61238135    -0.03700
C2906       C  0.76603877  0.59888100  0.61314737    -0.08100
C2907       C  0.77771386  0.60361481  0.63412931     0.05400
C2908       C  0.76477221  0.60341300  0.65470210    -0.03200
Br2909     Br  0.77795846  0.61278099  0.68460688    -0.02900
H2910       H  0.73175435  0.59736384  0.67010137     0.09300
H2911       H  0.77562210  0.59843660  0.59717163     0.07300
Br2912     Br  0.72855859  0.59104887  0.58237563    -0.03300
C2913       C  0.52116462  0.75444608  0.61841578    -0.09900
C2914       C  0.52676569  0.71100547  0.62094098     0.06300
C2915       C  0.50902348  0.68056245  0.62334460    -0.03700
C2916       C  0.48614846  0.69414775  0.62425340    -0.08100
C2917       C  0.48046877  0.73764880  0.62165013     0.05400
C2918       C  0.49824575  0.76785210  0.61817022    -0.03200
Br2919     Br  0.49251733  0.82791099  0.61356503    -0.02900
H2920       H  0.53469457  0.77797265  0.61620911     0.09300
H2921       H  0.47269245  0.67050508  0.62655070     0.07300
Br2922     Br  0.51510179  0.62023926  0.62592071    -0.03300
C2923       C  0.64568833  0.08331439  0.49207840    -0.09900
C2924       C  0.62445015  0.07809400  0.48093725     0.06300
C2925       C  0.60478068  0.06995655  0.49445891    -0.03700
C2926       C  0.60632836  0.07052459  0.51841908    -0.08100
C2927       C  0.62718226  0.07913471  0.52964982     0.05400
C2928       C  0.64725490  0.08389235  0.51616127    -0.03200
Br2929     Br  0.67694262  0.09543585  0.52906347    -0.02900
H2930       H  0.66099989  0.08963198  0.48203591     0.09300
H2931       H  0.59081673  0.06558018  0.52838055     0.07300
Br2932     Br  0.57515938  0.05796410  0.48150010    -0.03300
C2933       C  0.63867696  0.91854377  0.61279009    -0.09900
C2934       C  0.63501178  0.93876643  0.63399333     0.06300
C2935       C  0.63095428  0.91286778  0.65360177    -0.03700
C2936       C  0.62920253  0.86817325  0.65134711    -0.08100
C2937       C  0.63206653  0.84806945  0.62992439     0.05400
C2938       C  0.63747731  0.87391695  0.61059818    -0.03200
Br2939     Br  0.64233349  0.85139195  0.58025004    -0.02900
H2940       H  0.64181596  0.93768976  0.59754388     0.09300
H2941       H  0.62599572  0.84894275  0.66654760     0.07300
Br2942     Br  0.62911606  0.93592783  0.68414709    -0.03300
C2943       C  0.62982237  0.37048887  0.61168497    -0.09900
C2944       C  0.62649450  0.34838203  0.63252168     0.06300
C2945       C  0.62431453  0.37214944  0.65304870    -0.03700
C2946       C  0.62509200  0.41702444  0.65225619    -0.08100
C2947       C  0.62837639  0.43896621  0.63136076     0.05400
C2948       C  0.63080625  0.41517307  0.61091721    -0.03200
Br2949     Br  0.63389165  0.44144290  0.58115401    -0.02900
H2950       H  0.63140441  0.35285359  0.59570848     0.09300
H2951       H  0.62339391  0.43491848  0.66813683     0.07300
Br2952     Br  0.62183992  0.34559457  0.68276766    -0.03300
C2953       C  0.74324489  0.12779133  0.64933291    -0.09900
C2954       C  0.73144978  0.09952606  0.63444217     0.06300
C2955       C  0.74429453  0.07745289  0.61751931    -0.03700
C2956       C  0.76796719  0.08444901  0.61567276    -0.08100
C2957       C  0.77947055  0.11188057  0.63089119     0.05400
C2958       C  0.76694771  0.13355112  0.64785776    -0.03200
Br2959     Br  0.78159612  0.17100157  0.66953555    -0.02900
H2960       H  0.73408624  0.14584643  0.66232644     0.09300
H2961       H  0.77774446  0.06598298  0.60327670     0.07300
Br2962     Br  0.73160985  0.03411206  0.59793217    -0.03300
C2963       C  0.51821800  0.22829859  0.64240667    -0.09900
C2964       C  0.52813394  0.21302671  0.62187965     0.06300
C2965       C  0.51448378  0.21216753  0.60170363    -0.03700
C2966       C  0.49154757  0.22495331  0.60272953    -0.08100
C2967       C  0.48167706  0.23890728  0.62338104     0.05400
C2968       C  0.49535685  0.24156063  0.64323967    -0.03200
Br2969     Br  0.48442119  0.26629395  0.67142077    -0.02900
H2970       H  0.52825761  0.23014281  0.65803335     0.09300
H2971       H  0.48124471  0.22370489  0.58722776     0.07300
Br2972     Br  0.52555426  0.19576430  0.57183173    -0.03300
C2973       C  0.60730213  0.86940560  0.98975977    -0.09900
C2974       C  0.62778958  0.85658932  0.97902627     0.06300
C2975       C  0.64755639  0.85033041  0.99268740    -0.03700
C2976       C  0.64609545  0.85461867  0.01662241    -0.08100
C2977       C  0.62509609  0.86396668  0.02744243     0.05400
C2978       C  0.60576624  0.87289787  0.01367348    -0.03200
Br2979     Br  0.57664503  0.88895119  0.02648816    -0.02900
H2980       H  0.59205788  0.87499958  0.97951818     0.09300
H2981       H  0.66104339  0.84699700  0.02692611     0.07300
Br2982     Br  0.67608090  0.82964161  0.98039130    -0.03300
C2983       C  0.74223229  0.83985212  0.84997636    -0.09900
C2984       C  0.73082824  0.84432464  0.87119830     0.06300
C2985       C  0.74423503  0.84522888  0.89153667    -0.03700
C2986       C  0.76816906  0.84211713  0.89013619    -0.08100
C2987       C  0.77931471  0.83784812  0.86887754     0.05400
C2988       C  0.76603149  0.83625329  0.84867186    -0.03200
Br2989     Br  0.77915716  0.82721128  0.81873930    -0.02900
H2990       H  0.73255179  0.83822153  0.83410067     0.09300
H2991       H  0.77818975  0.84412623  0.90579512     0.07300
Br2992     Br  0.73172848  0.84875203  0.92195975    -0.03300
C2993       C  0.51436553  0.75505915  0.87884602    -0.09900
C2994       C  0.52992748  0.72308518  0.88525170     0.06300
C2995       C  0.52202243  0.68254459  0.89209005    -0.03700
C2996       C  0.49848937  0.67436739  0.89242049    -0.08100
C2997       C  0.48277918  0.70619895  0.88570157     0.05400
C2998       C  0.49085015  0.74698284  0.87903952    -0.03200
Br2999     Br  0.47069169  0.79383446  0.87188253    -0.02900
H3000       H  0.52055085  0.78657659  0.87394355     0.09300
H3001       H  0.49245493  0.64297353  0.89771053     0.07300
Br3002     Br  0.54276293  0.63813833  0.90152010    -0.03300
C3003       C  0.61174744  0.72094566  0.73899049    -0.09900
C3004       C  0.63285830  0.71612965  0.72750979     0.06300
C3005       C  0.65325422  0.71686117  0.74074084    -0.03700
C3006       C  0.65211305  0.72044468  0.76463822    -0.08100
C3007       C  0.63107858  0.72484262  0.77619619     0.05400
C3008       C  0.61070038  0.72589818  0.76297372    -0.03200
Br3009     Br  0.58112738  0.73778252  0.77599076    -0.02900
H3010       H  0.59587712  0.72071931  0.72929308     0.09300
H3011       H  0.66803088  0.72072826  0.77427082     0.07300
Br3012     Br  0.68357282  0.71598771  0.72764727    -0.03300
C3013       C  0.60500911  0.37305897  0.99107430    -0.09900
C3014       C  0.62492647  0.35802187  0.97998200     0.06300
C3015       C  0.64456943  0.34943629  0.99347530    -0.03700
C3016       C  0.64365497  0.35414784  0.01743097    -0.08100
C3017       C  0.62333260  0.36658095  0.02862526     0.05400
C3018       C  0.60406823  0.37736644  0.01509140    -0.03200
Br3019     Br  0.57599418  0.39774677  0.02849266    -0.02900
H3020       H  0.58983360  0.38035175  0.98104708     0.09300
H3021       H  0.65848072  0.34479108  0.02749903     0.07300
Br3022     Br  0.67222324  0.32559067  0.98083991    -0.03300
C3023       C  0.65120301  0.56192189  0.88027220    -0.09900
C3024       C  0.63088622  0.58360628  0.87411513     0.06300
C3025       C  0.61140507  0.55915532  0.86816943    -0.03700
C3026       C  0.61243471  0.51443326  0.86898527    -0.08100
C3027       C  0.63259505  0.49268881  0.87551006     0.05400
C3028       C  0.65228911  0.51706451  0.88085060    -0.03200
Br3029     Br  0.68153805  0.49168160  0.88762983    -0.02900
H3030       H  0.66650992  0.58001057  0.88452349     0.09300
H3031       H  0.59704328  0.49650651  0.86484667     0.07300
Br3032     Br  0.58233035  0.58400952  0.86017514    -0.03300
C3033       C  0.63512712  0.06100119  0.89817842    -0.09900
C3034       C  0.62730598  0.08341498  0.87866102     0.06300
C3035       C  0.62145970  0.05980932  0.85877753    -0.03700
C3036       C  0.62315740  0.01505702  0.85900707    -0.08100
C3037       C  0.63074502  0.99274959  0.87863764     0.05400
C3038       C  0.63702677  0.01635085  0.89831323    -0.03200
Br3039     Br  0.64711533  0.99006647  0.92643579    -0.02900
H3040       H  0.63966660  0.07830387  0.91367479     0.09300
H3041       H  0.61853230  0.99750623  0.84361026     0.07300
Br3042     Br  0.61207680  0.08602174  0.83036062    -0.03300
C3043       C  0.76858461  0.34418881  0.89228553    -0.09900
C3044       C  0.77969794  0.33518550  0.87141380     0.06300
C3045       C  0.76642111  0.32748040  0.85170161    -0.03700
C3046       C  0.74258745  0.33034000  0.85291104    -0.08100
C3047       C  0.73112549  0.33965627  0.87373567     0.05400
C3048       C  0.74458679  0.34621324  0.89369737    -0.03200
Br3049     Br  0.73199798  0.35618865  0.92366330    -0.02900
H3050       H  0.77867030  0.35061380  0.90755396     0.09300
H3051       H  0.73297955  0.32421724  0.83731411     0.07300
Br3052     Br  0.77980785  0.31053756  0.82289249    -0.03300
C3053       C  0.49555216  0.17593995  0.87924917    -0.09900
C3054       C  0.48000560  0.20873816  0.88455292     0.06300
C3055       C  0.48807761  0.24989235  0.88996090    -0.03700
C3056       C  0.51163868  0.25767010  0.89033389    -0.08100
C3057       C  0.52737765  0.22511489  0.88475158     0.05400
C3058       C  0.51915312  0.18389110  0.87896621    -0.03200
Br3059     Br  0.53907150  0.13682242  0.87143874    -0.02900
H3060       H  0.48926544  0.14411075  0.87516308     0.09300
H3061       H  0.51767528  0.28955245  0.89465656     0.07300
Br3062     Br  0.46755501  0.29601411  0.89736707    -0.03300
C3063       C  0.61296584  0.21339144  0.76887724    -0.09900
C3064       C  0.63422282  0.21499263  0.78018424     0.06300
C3065       C  0.65450514  0.21264224  0.76693134    -0.03700
C3066       C  0.65315642  0.21037954  0.74302160    -0.08100
C3067       C  0.63190669  0.20972465  0.73151168     0.05400
C3068       C  0.61158933  0.21076551  0.74488491    -0.03200
Br3069     Br  0.58129749  0.20693393  0.73226007    -0.02900
H3070       H  0.59720227  0.21534542  0.77872431     0.09300
H3071       H  0.66904786  0.20862061  0.73337024     0.07300
Br3072     Br  0.68472828  0.21061292  0.78015810    -0.03300
loop_ 
_geom_bond_atom_site_label_1 
_geom_bond_atom_site_label_2 
_geom_bond_distance 
_geom_bond_site_symmetry_2 
_ccdc_geom_bond_type 
Zr1           O2   2.442       .  S
Zr1           O3   2.441       .  S
Zr1           O4   2.462       .  S
Zr1           O7   2.429       .  S
Zr1           O9   2.379       .  S
Zr1          O10   2.391       .  S
Zr1          O11   2.407       .  S
Zr1          O12   2.405       .  S
O2           H58   0.990       .  S
O2           H66   0.990       .  S
O3           C23   1.283       .  A
O4           C25   1.289       .  A
O5          Zr15   2.413       .  S
O5           C24   1.282       .  A
O6          Zr14   2.406       .  S
O6           C25   1.279       .  A
O7           C24   1.283       .  A
O8          Zr16   2.402       .  S
O8           C23   1.278       .  A
O9          Zr14   2.393       .  S
O9          Zr16   2.386       .  S
O10         Zr15   2.397       .  S
O10         Zr16   2.369       .  S
O10          H45   0.966       .  S
O11         Zr14   2.396       .  S
O11         Zr31   2.379       .  S
O11          H48   0.964       .  S
O12         Zr15   2.387       .  S
O12         Zr31   2.379       .  S
Zr13         O38   2.438       .  S
Zr13         O32   2.459       .  S
Zr13         O40   2.459       .  S
Zr13         O28   2.481       .  S
Zr13         O19   2.408       .  S
Zr13         O20   2.418       .  S
Zr13         O21   2.384       .  S
Zr13         O22   2.392       .  S
Zr14         O33   2.436       .  S
Zr14         O26   2.434       .  S
Zr14         O27   2.393       .  S
Zr14         O20   2.400       .  S
Zr14         O21   2.390       .  S
Zr15         O17   2.435       .  S
Zr15         O39   2.437       .  S
Zr15         O41   2.429       .  S
Zr15         O19   2.385       .  S
Zr15         O22   2.391       .  S
Zr16         O42   2.435       .  S
Zr16         O43   2.435       .  S
Zr16         O18   2.437       .  S
Zr16         O19   2.387       .  S
Zr16         O20   2.381       .  S
O17          H54   0.990       .  S
O18          H49   0.991       .  S
O18          H63   0.990       .  S
O20          H46   0.964       .  S
O21         Zr31   2.385       .  S
O22         Zr31   2.380       .  S
O22          H47   0.966       .  S
C23        C3034   1.484       .  S
C24        C3057   1.471       .  S
C25        C3064   1.481       .  S
O26          H62   0.990       .  S
O27          C29   1.279       .  A
O28          C29   1.291       .  A
C29        C3047   1.492       .  S
O30         Zr31   2.440       .  S
O30          H59   0.990       .  S
Zr31         O34   2.438       .  S
Zr31         O35   2.439       .  S
Zr31         O36   2.393       .  S
O32          C37   1.287       .  A
O33          H50   0.991       .  S
O33          H65   0.990       .  S
O34          H51   0.990       .  S
O35          H55   0.990       .  S
O35          H64   0.990       .  S
O36          C37   1.277       .  A
C37        C3027   1.485       .  S
O38          H57   0.988       .  S
O38          H61   0.990       .  S
O39          H53   0.990       .  S
O39          H60   0.990       .  S
O40          C44   1.289       .  A
O41          C44   1.284       .  A
O42          H52   0.990       .  S
O43          H56   0.990       .  S
C44        C3014   1.490       .  S
Zr67         O68   2.440       .  S
Zr67         O69   2.450       .  S
Zr67         O70   2.465       .  S
Zr67         O73   2.427       .  S
Zr67         O75   2.375       .  S
Zr67         O76   2.394       .  S
Zr67         O77   2.411       .  S
Zr67         O78   2.405       .  S
O68         H124   0.990       .  S
O68         H132   0.989       .  S
O69          C89   1.285       .  A
O70          C91   1.288       .  A
O71         Zr81   2.409       .  S
O71          C90   1.280       .  A
O72         Zr80   2.423       .  S
O72          C91   1.283       .  A
O73          C90   1.282       .  A
O74         Zr82   2.396       .  S
O74          C89   1.277       .  A
O75         Zr80   2.396       .  S
O75         Zr82   2.389       .  S
O76         Zr81   2.396       .  S
O76         Zr82   2.372       .  S
O76         H111   0.967       .  S
O77         Zr80   2.397       .  S
O77         Zr97   2.384       .  S
O77         H114   0.964       .  S
O78         Zr81   2.389       .  S
O78         Zr97   2.380       .  S
Zr79        O104   2.437       .  S
Zr79         O98   2.450       .  S
Zr79        O106   2.443       .  S
Zr79         O94   2.464       .  S
Zr79         O85   2.408       .  S
Zr79         O86   2.412       .  S
Zr79         O87   2.382       .  S
Zr79         O88   2.386       .  S
Zr80         O99   2.437       .  S
Zr80         O92   2.436       .  S
Zr80         O93   2.415       .  S
Zr80         O86   2.400       .  S
Zr80         O87   2.394       .  S
Zr81         O83   2.436       .  S
Zr81        O105   2.437       .  S
Zr81        O107   2.421       .  S
Zr81         O85   2.382       .  S
Zr81         O88   2.391       .  S
Zr82        O108   2.435       .  S
Zr82        O109   2.436       .  S
Zr82         O84   2.437       .  S
Zr82         O85   2.391       .  S
Zr82         O86   2.367       .  S
O83         H120   0.990       .  S
O84         H115   0.990       .  S
O84         H129   0.990       .  S
O86         H112   0.963       .  S
O87         Zr97   2.388       .  S
O88         Zr97   2.376       .  S
O88         H113   0.966       .  S
C89        C3024   1.484       .  S
C90        C2994   1.452       .  S
C91        C3007   1.489       .  S
O92         H128   0.990       .  S
O93          C95   1.283       .  A
O94          C95   1.288       .  A
C95        C2984   1.488       .  S
O96         Zr97   2.438       .  S
O96         H125   0.991       .  S
Zr97        O100   2.436       .  S
Zr97        O101   2.440       .  S
Zr97        O102   2.392       .  S
O98         C103   1.285       .  A
O99         H116   0.990       .  S
O99         H131   0.990       .  S
O100        H117   0.990       .  S
O101        H121   0.990       .  S
O101        H130   0.990       .  S
O102        C103   1.276       .  A
C103       C3037   1.480       .  S
O104        H123   0.988       .  S
O104        H127   0.990       .  S
O105        H119   0.990       .  S
O105        H126   0.990       .  S
O106        C110   1.284       .  A
O107        C110   1.283       .  A
O108        H118   0.990       .  S
O109        H122   0.990       .  S
C110       C2974   1.481       .  S
Zr133       O134   2.439       .  S
Zr133       O135   2.448       .  S
Zr133       O136   2.468       .  S
Zr133       O139   2.432       .  S
Zr133       O141   2.377       .  S
Zr133       O142   2.387       .  S
Zr133       O143   2.407       .  S
Zr133       O144   2.412       .  S
O134        H190   0.990       .  S
O134        H198   0.990       .  S
O135        C155   1.285       .  A
O136        C157   1.289       .  A
O137       Zr147   2.414       .  S
O137        C156   1.280       .  A
O138       Zr146   2.410       .  S
O138        C157   1.282       .  A
O139        C156   1.285       .  A
O140       Zr148   2.397       .  S
O140        C155   1.277       .  A
O141       Zr146   2.395       .  S
O141       Zr148   2.384       .  S
O142       Zr147   2.396       .  S
O142       Zr148   2.368       .  S
O142        H177   0.967       .  S
O143       Zr146   2.398       .  S
O143       Zr163   2.372       .  S
O143        H180   0.964       .  S
O144       Zr147   2.392       .  S
O144       Zr163   2.395       .  S
Zr145       O170   2.435       .  S
Zr145       O164   2.464       .  S
Zr145       O172   2.453       .  S
Zr145       O160   2.467       .  S
Zr145       O151   2.404       .  S
Zr145       O152   2.418       .  S
Zr145       O153   2.378       .  S
Zr145       O154   2.387       .  S
Zr146       O165   2.436       .  S
Zr146       O158   2.435       .  S
Zr146       O159   2.414       .  S
Zr146       O152   2.396       .  S
Zr146       O153   2.395       .  S
Zr147       O149   2.434       .  S
Zr147       O171   2.439       .  S
Zr147       O173   2.416       .  S
Zr147       O151   2.380       .  S
Zr147       O154   2.391       .  S
Zr148       O174   2.436       .  S
Zr148       O175   2.434       .  S
Zr148       O150   2.437       .  S
Zr148       O151   2.385       .  S
Zr148       O152   2.374       .  S
O149        H186   0.990       .  S
O150        H181   0.990       .  S
O150        H195   0.990       .  S
O152        H178   0.963       .  S
O153       Zr163   2.386       .  S
O154       Zr163   2.380       .  S
O154        H179   0.967       .  S
C155       C2944   1.480       .  S
C156       C2964   1.485       .  S
C157       C3067   1.488       .  S
O158        H194   0.990       .  S
O159        C161   1.282       .  A
O160        C161   1.290       .  A
C161       C2954   1.490       .  S
O162       Zr163   2.440       .  S
O162        H191   0.990       .  S
Zr163       O166   2.438       .  S
Zr163       O167   2.439       .  S
Zr163       O168   2.402       .  S
O164        C169   1.289   1_545  A
O165        H182   0.990       .  S
O165        H197   0.990       .  S
O166        H183   0.989       .  S
O167        H187   0.990       .  S
O167        H196   0.990       .  S
O168        C169   1.277   1_545  A
C169       C2934   1.487       .  S
O170        H189   0.990       .  S
O170        H193   0.989       .  S
O171        H185   0.990       .  S
O171        H192   0.990       .  S
O172        C176   1.287       .  A
O173        C176   1.283       .  A
O174        H184   0.990       .  S
O175        H188   0.990       .  S
C176       C2927   1.487       .  S
Zr199       O200   2.441       .  S
Zr199       O201   2.461       .  S
Zr199       O202   2.472       .  S
Zr199       O205   2.449       .  S
Zr199       O207   2.377       .  S
Zr199       O208   2.391       .  S
Zr199       O209   2.410       .  S
Zr199       O210   2.411       .  S
O200        H256   0.990       .  S
O200        H264   0.990       .  S
O201        C221   1.289       .  A
O202        C223   1.291       .  A
O203       Zr213   2.419       .  S
O203        C222   1.282       .  A
O204       Zr212   2.409       .  S
O204        C223   1.279       .  A
O205        C222   1.288       .  A
O206       Zr214   2.404       .  S
O206        C221   1.277       .  A
O207       Zr212   2.398       .  S
O207       Zr214   2.388       .  S
O208       Zr213   2.401       .  S
O208       Zr214   2.370       .  S
O208        H243   0.967       .  S
O209       Zr212   2.393       .  S
O209       Zr229   2.382       .  S
O209        H246   0.963       .  S
O210       Zr213   2.390       .  S
O210       Zr229   2.385       .  S
Zr211       O236   2.440       .  S
Zr211       O230   2.444       .  S
Zr211       O238   2.443       .  S
Zr211       O226   2.479       .  S
Zr211       O217   2.406       .  S
Zr211       O218   2.411       .  S
Zr211       O219   2.380       .  S
Zr211       O220   2.397       .  S
Zr212       O231   2.438       .  S
Zr212       O224   2.432       .  S
Zr212       O225   2.410       .  S
Zr212       O218   2.393       .  S
Zr212       O219   2.384       .  S
Zr213       O215   2.435       .  S
Zr213       O237   2.439       .  S
Zr213       O239   2.434       .  S
Zr213       O217   2.383       .  S
Zr213       O220   2.394       .  S
Zr214       O240   2.436       .  S
Zr214       O241   2.437       .  S
Zr214       O216   2.436       .  S
Zr214       O217   2.384       .  S
Zr214       O218   2.373       .  S
O215        H252   0.990       .  S
O216        H247   0.991       .  S
O216        H261   0.990       .  S
O218        H244   0.963       .  S
O219       Zr229   2.388       .  S
O220       Zr229   2.381       .  S
O220        H245   0.966       .  S
C221       C2937   1.489       .  S
C222       C2914   1.472       .  S
C223       C3004   1.490       .  S
O224        H260   0.990       .  S
O225        C227   1.282       .  A
O226        C227   1.291       .  A
C227       C2904   1.493       .  S
O228       Zr229   2.439       .  S
O228        H257   0.990       .  S
Zr229       O232   2.438       .  S
Zr229       O233   2.439       .  S
Zr229       O234   2.400       .  S
O230        C235   1.284       .  A
O231        H248   0.990       .  S
O231        H263   0.990       .  S
O232        H249   0.990       .  S
O233        H253   0.990       .  S
O233        H262   0.989       .  S
O234        C235   1.278       .  A
C235       C2947   1.476       .  S
O236        H255   0.990       .  S
O236        H259   0.989       .  S
O237        H251   0.990       .  S
O237        H258   0.990       .  S
O238        C242   1.286       .  A
O239        C242   1.285       .  A
O240        H250   0.990       .  S
O241        H254   0.991       .  S
C242       C2894   1.482       .  S
Zr265       O266   2.442       .  S
Zr265       O267   2.459       .  S
Zr265       O268   2.472       .  S
Zr265       O271   2.435       .  S
Zr265       O273   2.377       .  S
Zr265       O274   2.392       .  S
Zr265       O275   2.411       .  S
Zr265       O276   2.408       .  S
O266        H322   0.990       .  S
O266        H330   0.990       .  S
O267        C287   1.288       .  A
O268        C289   1.290       .  A
O269       Zr279   2.413       .  S
O269        C288   1.281       .  A
O270       Zr278   2.414       .  S
O270        C289   1.281       .  A
O271        C288   1.284       .  A
O272       Zr280   2.396       .  S
O272        C287   1.276       .  A
O273       Zr278   2.394       .  S
O273       Zr280   2.389       .  S
O274       Zr279   2.395       .  S
O274       Zr280   2.374       .  S
O274        H309   0.966       .  S
O275       Zr278   2.396       .  S
O275       Zr295   2.384       .  S
O275        H312   0.965       .  S
O276       Zr279   2.390       .  S
O276       Zr295   2.384       .  S
Zr277       O302   2.441       .  S
Zr277       O296   2.453       .  S
Zr277       O304   2.450       .  S
Zr277       O292   2.464       .  S
Zr277       O283   2.403       .  S
Zr277       O284   2.413       .  S
Zr277       O285   2.381       .  S
Zr277       O286   2.387       .  S
Zr278       O297   2.436       .  S
Zr278       O290   2.433       .  S
Zr278       O291   2.402       .  S
Zr278       O284   2.395       .  S
Zr278       O285   2.396       .  S
Zr279       O281   2.435       .  S
Zr279       O303   2.439       .  S
Zr279       O305   2.425       .  S
Zr279       O283   2.382       .  S
Zr279       O286   2.390       .  S
Zr280       O306   2.433       .  S
Zr280       O307   2.435       .  S
Zr280       O282   2.438       .  S
Zr280       O283   2.385       .  S
Zr280       O284   2.375       .  S
O281        H318   0.990       .  S
O282        H313   0.990       .  S
O282        H327   0.990       .  S
O284        H310   0.964       .  S
O285       Zr295   2.385       .  S
O286       Zr295   2.379       .  S
O286        H311   0.967       .  S
C287       C2864   1.480       .  S
C288       C3054   1.458       .  S
C289       C2884   1.484       .  S
O290        H326   0.990       .  S
O291        C293   1.279       .  A
O292        C293   1.289       .  A
C293       C2877   1.475       .  S
O294       Zr295   2.439       .  S
O294        H323   0.990       .  S
Zr295       O298   2.436       .  S
Zr295       O299   2.441       .  S
Zr295       O300   2.396       .  S
O296        C301   1.286   1_545  A
O297        H314   0.990       .  S
O297        H329   0.990       .  S
O298        H315   0.990       .  S
O299        H319   0.990       .  S
O299        H328   0.990       .  S
O300        C301   1.277   1_545  A
C301       C2854   1.481       .  S
O302        H321   0.991       .  S
O302        H325   0.990       .  S
O303        H317   0.990       .  S
O303        H324   0.990       .  S
O304        C308   1.287       .  A
O305        C308   1.283       .  A
O306        H316   0.990       .  S
O307        H320   0.990       .  S
C308       C2844   1.481       .  S
Zr331       O332   2.438       .  S
Zr331       O333   2.457       .  S
Zr331       O334   2.468       .  S
Zr331       O337   2.435       .  S
Zr331       O339   2.375       .  S
Zr331       O340   2.389       .  S
Zr331       O341   2.410       .  S
Zr331       O342   2.408       .  S
O332        H388   0.990       .  S
O332        H396   0.989       .  S
O333        C353   1.287       .  A
O334        C355   1.289       .  A
O335       Zr345   2.399       .  S
O335        C354   1.279       .  A
O336       Zr344   2.429       .  S
O336        C355   1.284       .  A
O337        C354   1.284       .  A
O338       Zr346   2.398       .  S
O338        C353   1.278       .  A
O339       Zr344   2.389       .  S
O339       Zr346   2.386       .  S
O340       Zr345   2.396       .  S
O340       Zr346   2.369       .  S
O340        H375   0.966       .  S
O341       Zr344   2.395       .  S
O341       Zr361   2.378       .  S
O341        H378   0.964       .  S
O342       Zr345   2.393       .  S
O342       Zr361   2.388       .  S
Zr343       O368   2.442       .  S
Zr343       O362   2.460       .  S
Zr343       O370   2.446       .  S
Zr343       O358   2.464       .  S
Zr343       O349   2.404       .  S
Zr343       O350   2.415       .  S
Zr343       O351   2.385       .  S
Zr343       O352   2.387       .  S
Zr344       O363   2.436       .  S
Zr344       O356   2.436       .  S
Zr344       O357   2.406       .  S
Zr344       O350   2.400       .  S
Zr344       O351   2.403       .  S
Zr345       O347   2.435       .  S
Zr345       O369   2.439       .  S
Zr345       O371   2.414       .  S
Zr345       O349   2.379       .  S
Zr345       O352   2.390       .  S
Zr346       O372   2.436       .  S
Zr346       O373   2.435       .  S
Zr346       O348   2.436       .  S
Zr346       O349   2.385       .  S
Zr346       O350   2.377       .  S
O347        H384   0.990       .  S
O348        H379   0.990       .  S
O348        H393   0.990       .  S
O350        H376   0.964       .  S
O351       Zr361   2.388       .  S
O352       Zr361   2.380       .  S
O352        H377   0.967       .  S
C353       C2857   1.485       .  S
C354       C2997   1.464       .  S
C355       C2834   1.495       .  S
O356        H392   0.990       .  S
O357        C359   1.281       .  A
O358        C359   1.288       .  A
C359       C2824   1.473       .  S
O360       Zr361   2.439       .  S
O360        H389   0.991       .  S
Zr361       O364   2.436       .  S
Zr361       O365   2.440       .  S
Zr361       O366   2.398       .  S
O362        C367   1.288       .  A
O363        H380   0.991       .  S
O363        H395   0.990       .  S
O364        H381   0.990       .  S
O365        H385   0.990       .  S
O365        H394   0.990       .  S
O366        C367   1.277       .  A
C367       C2867   1.479       .  S
O368        H387   0.991       .  S
O368        H391   0.990       .  S
O369        H383   0.990       .  S
O369        H390   0.990       .  S
O370        C374   1.287       .  A
O371        C374   1.281       .  A
O372        H382   0.990       .  S
O373        H386   0.990       .  S
C374       C2814   1.482       .  S
Zr397       O398   2.440       .  S
Zr397       O399   2.463       .  S
Zr397       O400   2.477       .  S
Zr397       O403   2.442       .  S
Zr397       O405   2.373       .  S
Zr397       O406   2.395       .  S
Zr397       O407   2.408       .  S
Zr397       O408   2.411       .  S
O398        H454   0.990       .  S
O398        H462   0.990       .  S
O399        C419   1.288       .  A
O400        C421   1.292       .  A
O401       Zr411   2.410       .  S
O401        C420   1.281       .  A
O402       Zr410   2.419       .  S
O402        C421   1.280       .  A
O403        C420   1.286       .  A
O404       Zr412   2.397       .  S
O404        C419   1.276       .  A
O405       Zr410   2.393       .  S
O405       Zr412   2.384       .  S
O406       Zr411   2.406       .  S
O406       Zr412   2.370       .  S
O406        H441   0.966       .  S
O407       Zr410   2.393       .  S
O407       Zr427   2.375       .  S
O407        H444   0.964       .  S
O408       Zr411   2.395       .  S
O408       Zr427   2.386       .  S
Zr409       O434   2.440       .  S
Zr409       O428   2.470       .  S
Zr409       O436   2.457       .  S
Zr409       O424   2.485       .  S
Zr409       O415   2.407       .  S
Zr409       O416   2.420       .  S
Zr409       O417   2.386       .  S
Zr409       O418   2.392       .  S
Zr410       O429   2.435       .  S
Zr410       O422   2.436       .  S
Zr410       O423   2.399       .  S
Zr410       O416   2.403       .  S
Zr410       O417   2.392       .  S
Zr411       O413   2.437       .  S
Zr411       O435   2.439       .  S
Zr411       O437   2.436       .  S
Zr411       O415   2.381       .  S
Zr411       O418   2.385       .  S
Zr412       O438   2.438       .  S
Zr412       O439   2.438       .  S
Zr412       O414   2.440       .  S
Zr412       O415   2.387       .  S
Zr412       O416   2.379       .  S
O413        H450   0.990       .  S
O414        H445   0.991       .  S
O414        H459   0.990       .  S
O416        H442   0.963       .  S
O417       Zr427   2.387       .  S
O418       Zr427   2.386       .  S
O418        H443   0.965       .  S
C419       C2797   1.486       .  S
C420       C2967   1.470       .  S
C421       C2887   1.499       .  S
O422        H458   0.990       .  S
O423        C425   1.281       .  A
O424        C425   1.292       .  A
C425       C2804   1.492       .  S
O426       Zr427   2.440       .  S
O426        H455   0.990       .  S
Zr427       O430   2.439       .  S
Zr427       O431   2.438       .  S
Zr427       O432   2.387       .  S
O428        C433   1.289       .  A
O429        H446   0.990       .  S
O429        H461   0.990       .  S
O430        H447   0.990       .  S
O431        H451   0.990       .  S
O431        H460   0.990       .  S
O432        C433   1.275       .  A
C433       C2784   1.477       .  S
O434        H453   0.988       .  S
O434        H457   0.990       .  S
O435        H449   0.990       .  S
O435        H456   0.990       .  S
O436        C440   1.288       .  A
O437        C440   1.286       .  A
O438        H448   0.990       .  S
O439        H452   0.990       .  S
C440       C2774   1.493       .  S
Zr463       O464   2.442       .  S
Zr463       O465   2.449       .  S
Zr463       O466   2.469       .  S
Zr463       O469   2.441       .  S
Zr463       O471   2.380       .  S
Zr463       O472   2.387       .  S
Zr463       O473   2.405       .  S
Zr463       O474   2.408       .  S
O464        H520   0.990       .  S
O464        H528   0.990       .  S
O465        C485   1.287       .  A
O466        C487   1.291       .  A
O467       Zr477   2.422       .  S
O467        C486   1.283       .  A
O468       Zr476   2.413       .  S
O468        C487   1.280       .  A
O469        C486   1.287       .  A
O470       Zr478   2.403       .  S
O470        C485   1.279       .  A
O471       Zr476   2.395       .  S
O471       Zr478   2.385       .  S
O472       Zr477   2.393       .  S
O472       Zr478   2.371       .  S
O472        H507   0.965       .  S
O473       Zr476   2.397       .  S
O473       Zr493   2.378       .  S
O473        H510   0.965       .  S
O474       Zr477   2.389       .  S
O474       Zr493   2.385       .  S
Zr475       O500   2.441       .  S
Zr475       O494   2.468       .  S
Zr475       O502   2.464       .  S
Zr475       O490   2.479       .  S
Zr475       O481   2.408       .  S
Zr475       O482   2.417       .  S
Zr475       O483   2.383       .  S
Zr475       O484   2.393       .  S
Zr476       O495   2.435       .  S
Zr476       O488   2.436       .  S
Zr476       O489   2.406       .  S
Zr476       O482   2.398       .  S
Zr476       O483   2.395       .  S
Zr477       O479   2.435       .  S
Zr477       O501   2.439       .  S
Zr477       O503   2.424       .  S
Zr477       O481   2.384       .  S
Zr477       O484   2.390       .  S
Zr478       O504   2.438       .  S
Zr478       O505   2.435       .  S
Zr478       O480   2.437       .  S
Zr478       O481   2.385       .  S
Zr478       O482   2.378       .  S
O479        H516   0.990       .  S
O480        H511   0.990       .  S
O480        H525   0.990       .  S
O482        H508   0.963       .  S
O483       Zr493   2.388       .  S
O484       Zr493   2.382       .  S
O484        H509   0.965       .  S
C485       C2787   1.478       .  S
C486       C2917   1.478       .  S
C487       C2837   1.491       .  S
O488        H524   0.990       .  S
O489        C491   1.279       .  A
O490        C491   1.292       .  A
C491       C2764   1.488       .  S
O492       Zr493   2.440       .  S
O492        H521   0.990       .  S
Zr493       O496   2.437       .  S
Zr493       O497   2.440       .  S
Zr493       O498   2.390       .  S
O494        C499   1.289       .  A
O495        H512   0.990       .  S
O495        H527   0.990       .  S
O496        H513   0.990       .  S
O497        H517   0.990       .  S
O497        H526   0.990       .  S
O498        C499   1.276       .  A
C499       C2794   1.482   1_565  S
O500        H519   0.991       .  S
O500        H523   0.990       .  S
O501        H515   0.990       .  S
O501        H522   0.990       .  S
O502        C506   1.290       .  A
O503        C506   1.285       .  A
O504        H514   0.989       .  S
O505        H518   0.990       .  S
C506       C2754   1.491       .  S
Zr529       O530   2.442       .  S
Zr529       O531   2.459       .  S
Zr529       O532   2.479       .  S
Zr529       O535   2.444       .  S
Zr529       O537   2.379       .  S
Zr529       O538   2.391       .  S
Zr529       O539   2.409   1_565  S
Zr529       O540   2.410   1_565  S
O530        H586   0.990       .  S
O530        H594   0.991       .  S
O531        C551   1.288       .  A
O532        C553   1.293       .  A
O533       Zr543   2.407       .  S
O533        C552   1.280   1_545  A
O534       Zr542   2.414       .  S
O534        C553   1.279   1_545  A
O535        C552   1.286       .  A
O536       Zr544   2.404       .  S
O536        C551   1.278       .  A
O537       Zr542   2.400   1_565  S
O537       Zr544   2.385       .  S
O538       Zr543   2.399   1_565  S
O538       Zr544   2.375       .  S
O538        H573   0.965       .  S
O539       Zr542   2.396       .  S
O539       Zr559   2.375       .  S
O539        H576   0.964       .  S
O540       Zr543   2.387       .  S
O540       Zr559   2.384       .  S
Zr541       O566   2.441       .  S
Zr541       O560   2.460       .  S
Zr541       O568   2.480       .  S
Zr541       O556   2.466       .  S
Zr541       O547   2.406       .  S
Zr541       O548   2.421       .  S
Zr541       O549   2.386       .  S
Zr541       O550   2.391       .  S
Zr542       O561   2.438       .  S
Zr542       O554   2.436       .  S
Zr542       O555   2.411       .  S
Zr542       O548   2.401       .  S
Zr542       O549   2.391       .  S
Zr543       O545   2.436       .  S
Zr543       O567   2.439       .  S
Zr543       O569   2.419       .  S
Zr543       O547   2.385       .  S
Zr543       O550   2.388       .  S
Zr544       O570   2.434       .  S
Zr544       O571   2.437       .  S
Zr544       O546   2.438       .  S
Zr544       O547   2.390   1_565  S
Zr544       O548   2.372   1_565  S
O545        H582   0.990       .  S
O546        H577   0.990       .  S
O546        H591   0.989       .  S
O548        H574   0.964       .  S
O549       Zr559   2.382       .  S
O550       Zr559   2.385       .  S
O550        H575   0.967       .  S
C551       C2717   1.478       .  S
C552       C2734   1.467       .  S
C553       C2744   1.500       .  S
O554        H590   0.990   1_545  S
O555        C557   1.281       .  A
O556        C557   1.289       .  A
C557       C2957   1.465       .  S
O558       Zr559   2.439       .  S
O558        H587   0.990       .  S
Zr559       O562   2.438       .  S
Zr559       O563   2.437       .  S
Zr559       O564   2.386       .  S
O560        C565   1.288       .  A
O561        H578   0.990       .  S
O561        H593   0.990       .  S
O562        H579   0.990       .  S
O563        H583   0.990       .  S
O563        H592   0.989       .  S
O564        C565   1.276       .  A
C565       C2727   1.477       .  S
O566        H585   0.990       .  S
O566        H589   0.991       .  S
O567        H581   0.990       .  S
O567        H588   0.990   1_545  S
O568        C572   1.292       .  A
O569        C572   1.283       .  A
O570        H580   0.990       .  S
O571        H584   0.990   1_565  S
C572       C2704   1.489       .  S
Zr595       O596   2.442       .  S
Zr595       O597   2.451       .  S
Zr595       O598   2.462       .  S
Zr595       O601   2.428       .  S
Zr595       O603   2.375       .  S
Zr595       O604   2.389       .  S
Zr595       O605   2.405       .  S
Zr595       O606   2.407       .  S
O596        H652   0.990       .  S
O596        H660   0.991       .  S
O597        C617   1.286       .  A
O598        C619   1.287       .  A
O599       Zr609   2.430       .  S
O599        C618   1.285       .  A
O600       Zr608   2.419       .  S
O600        C619   1.281       .  A
O601        C618   1.284       .  A
O602       Zr610   2.407       .  S
O602        C617   1.279       .  A
O603       Zr608   2.396       .  S
O603       Zr610   2.388       .  S
O604       Zr609   2.395       .  S
O604       Zr610   2.367       .  S
O604        H639   0.966       .  S
O605       Zr608   2.392       .  S
O605       Zr625   2.382       .  S
O605        H642   0.963       .  S
O606       Zr609   2.385       .  S
O606       Zr625   2.382       .  S
Zr607       O632   2.437       .  S
Zr607       O626   2.462       .  S
Zr607       O634   2.480       .  S
Zr607       O622   2.472       .  S
Zr607       O613   2.413       .  S
Zr607       O614   2.416       .  S
Zr607       O615   2.386       .  S
Zr607       O616   2.391       .  S
Zr608       O627   2.434       .  S
Zr608       O620   2.435       .  S
Zr608       O621   2.402       .  S
Zr608       O614   2.401       .  S
Zr608       O615   2.393       .  S
Zr609       O611   2.435       .  S
Zr609       O633   2.437       .  S
Zr609       O635   2.419       .  S
Zr609       O613   2.395       .  S
Zr609       O616   2.394       .  S
Zr610       O636   2.437       .  S
Zr610       O637   2.437       .  S
Zr610       O612   2.438       .  S
Zr610       O613   2.398       .  S
Zr610       O614   2.378       .  S
O611        H648   0.990       .  S
O612        H643   0.991       .  S
O612        H657   0.990       .  S
O614        H640   0.963       .  S
O615       Zr625   2.385       .  S
O616       Zr625   2.380       .  S
O616        H641   0.967       .  S
C617       C2724   1.481       .  S
C618       C2684   1.470       .  S
C619       C2694   1.471       .  S
O620        H656   0.990       .  S
O621        C623   1.278       .  A
O622        C623   1.292       .  A
C623       C2907   1.485       .  S
O624       Zr625   2.441       .  S
O624        H653   0.990       .  S
Zr625       O628   2.437       .  S
Zr625       O629   2.439       .  S
Zr625       O630   2.405       .  S
O626        C631   1.288       .  A
O627        H644   0.990       .  S
O627        H659   0.990       .  S
O628        H645   0.990       .  S
O629        H649   0.990       .  S
O629        H658   0.989       .  S
O630        C631   1.278       .  A
C631       C2714   1.480       .  S
O632        H651   0.990       .  S
O632        H655   0.989       .  S
O633        H647   0.990       .  S
O633        H654   0.990       .  S
O634        C638   1.292       .  A
O635        C638   1.284       .  A
O636        H646   0.990       .  S
O637        H650   0.990       .  S
C638       C2674   1.503       .  S
Zr661       O662   2.440       .  S
Zr661       O663   2.456       .  S
Zr661       O664   2.462       .  S
Zr661       O667   2.438       .  S
Zr661       O669   2.376       .  S
Zr661       O670   2.389       .  S
Zr661       O671   2.409       .  S
Zr661       O672   2.411       .  S
O662        H718   0.990       .  S
O662        H726   0.990       .  S
O663        C683   1.288       .  A
O664        C685   1.288       .  A
O665       Zr675   2.417       .  S
O665        C684   1.282       .  A
O666       Zr674   2.425       .  S
O666        C685   1.284       .  A
O667        C684   1.286       .  A
O668       Zr676   2.397       .  S
O668        C683   1.275       .  A
O669       Zr674   2.396       .  S
O669       Zr676   2.384       .  S
O670       Zr675   2.401       .  S
O670       Zr676   2.372       .  S
O670        H705   0.966       .  S
O671       Zr674   2.398       .  S
O671       Zr691   2.386       .  S
O671        H708   0.964       .  S
O672       Zr675   2.397       .  S
O672       Zr691   2.393       .  S
Zr673       O698   2.442       .  S
Zr673       O692   2.443       .  S
Zr673       O700   2.445       .  S
Zr673       O688   2.454       .  S
Zr673       O679   2.399       .  S
Zr673       O680   2.412       .  S
Zr673       O681   2.384       .  S
Zr673       O682   2.387       .  S
Zr674       O693   2.436       .  S
Zr674       O686   2.436       .  S
Zr674       O687   2.413       .  S
Zr674       O680   2.404       .  S
Zr674       O681   2.397       .  S
Zr675       O677   2.438       .  S
Zr675       O699   2.438       .  S
Zr675       O701   2.433       .  S
Zr675       O679   2.386       .  S
Zr675       O682   2.391       .  S
Zr676       O702   2.436       .  S
Zr676       O703   2.435       .  S
Zr676       O678   2.435       .  S
Zr676       O679   2.384       .  S
Zr676       O680   2.380       .  S
O677        H714   0.990       .  S
O678        H709   0.990       .  S
O678        H723   0.990       .  S
O680        H706   0.964       .  S
O681       Zr691   2.384       .  S
O682       Zr691   2.381       .  S
O682        H707   0.966       .  S
C683       C2644   1.489       .  S
C684       C2664   1.473       .  S
C685       C2697   1.490       .  S
O686        H722   0.990       .  S
O687        C689   1.281       .  A
O688        C689   1.286       .  A
C689       C3044   1.473       .  S
O690       Zr691   2.439       .  S
O690        H719   0.991       .  S
Zr691       O694   2.439       .  S
Zr691       O695   2.439       .  S
Zr691       O696   2.399       .  S
O692        C697   1.284       .  A
O693        H710   0.990       .  S
O693        H725   0.990       .  S
O694        H711   0.990       .  S
O695        H715   0.990       .  S
O695        H724   0.990       .  S
O696        C697   1.278       .  A
C697       C2654   1.477       .  S
O698        H717   0.990       .  S
O698        H721   0.991       .  S
O699        H713   0.990       .  S
O699        H720   0.990       .  S
O700        C704   1.286       .  A
O701        C704   1.284       .  A
O702        H712   0.990       .  S
O703        H716   0.990       .  S
C704       C2637   1.481       .  S
Zr727       O728   2.441       .  S
Zr727       O729   2.439   1_565  S
Zr727       O730   2.455       .  S
Zr727       O733   2.422       .  S
Zr727       O735   2.374       .  S
Zr727       O736   2.388       .  S
Zr727       O737   2.404       .  S
Zr727       O738   2.405       .  S
O728        H784   1.007   1_565  S
O728        H792   0.973       .  S
O729        C749   1.284       .  A
O730        C751   1.287       .  A
O731       Zr741   2.419       .  S
O731        C750   1.282       .  A
O732       Zr740   2.421       .  S
O732        C751   1.281       .  A
O733        C750   1.282       .  A
O734       Zr742   2.403   1_545  S
O734        C749   1.278       .  A
O735       Zr740   2.392       .  S
O735       Zr742   2.386       .  S
O736       Zr741   2.402       .  S
O736       Zr742   2.374       .  S
O736        H771   0.966       .  S
O737       Zr740   2.390       .  S
O737       Zr757   2.384       .  S
O737        H774   0.964       .  S
O738       Zr741   2.389       .  S
O738       Zr757   2.385       .  S
Zr739       O764   2.442       .  S
Zr739       O758   2.461       .  S
Zr739       O766   2.446       .  S
Zr739       O754   2.461       .  S
Zr739       O745   2.402       .  S
Zr739       O746   2.414       .  S
Zr739       O747   2.384       .  S
Zr739       O748   2.389       .  S
Zr740       O759   2.434       .  S
Zr740       O752   2.434       .  S
Zr740       O753   2.399       .  S
Zr740       O746   2.403       .  S
Zr740       O747   2.396       .  S
Zr741       O743   2.435       .  S
Zr741       O765   2.440       .  S
Zr741       O767   2.425       .  S
Zr741       O745   2.386       .  S
Zr741       O748   2.391       .  S
Zr742       O768   2.437       .  S
Zr742       O769   2.436       .  S
Zr742       O744   2.438       .  S
Zr742       O745   2.384       .  S
Zr742       O746   2.384       .  S
O743        H780   0.990       .  S
O744        H775   0.991   1_565  S
O744        H789   0.989       .  S
O746        H772   0.963       .  S
O747       Zr757   2.389       .  S
O748       Zr757   2.382       .  S
O748        H773   0.966       .  S
C749       C2657   1.478       .  S
C750       C2624   1.463       .  S
C751       C2747   1.478       .  S
O752        H788   0.990       .  S
O753        C755   1.278       .  A
O754        C755   1.288       .  A
C755       C2987   1.474       .  S
O756       Zr757   2.441       .  S
O756        H785   0.990       .  S
Zr757       O760   2.436       .  S
Zr757       O761   2.439       .  S
Zr757       O762   2.398       .  S
O758        C763   1.289       .  A
O759        H776   0.990       .  S
O759        H791   0.989       .  S
O760        H777   0.989       .  S
O761        H781   0.990       .  S
O761        H790   0.989       .  S
O762        C763   1.276       .  A
C763       C2647   1.486       .  S
O764        H783   0.990       .  S
O764        H787   0.991       .  S
O765        H779   0.990       .  S
O765        H786   0.990       .  S
O766        C770   1.286       .  A
O767        C770   1.284       .  A
O768        H778   0.990   1_565  S
O769        H782   0.990       .  S
C770       C2614   1.477       .  S
Zr793       O794   2.441       .  S
Zr793       O795   2.446       .  S
Zr793       O796   2.461       .  S
Zr793       O799   2.430       .  S
Zr793       O801   2.376       .  S
Zr793       O802   2.385       .  S
Zr793       O803   2.406   1_565  S
Zr793       O804   2.406   1_565  S
O794        H850   0.990       .  S
O794        H858   0.991       .  S
O795        C815   1.285       .  A
O796        C817   1.289       .  A
O797       Zr807   2.411       .  S
O797        C816   1.281   1_545  A
O798       Zr806   2.418       .  S
O798        C817   1.280   1_545  A
O799        C816   1.284       .  A
O800       Zr808   2.399       .  S
O800        C815   1.277       .  A
O801       Zr806   2.396   1_565  S
O801       Zr808   2.384       .  S
O802       Zr807   2.397   1_565  S
O802       Zr808   2.369       .  S
O802        H837   0.965       .  S
O803       Zr806   2.396       .  S
O803       Zr823   2.386       .  S
O803        H840   0.964       .  S
O804       Zr807   2.392       .  S
O804       Zr823   2.387       .  S
Zr805       O830   2.440       .  S
Zr805       O824   2.459       .  S
Zr805       O832   2.450       .  S
Zr805       O820   2.469       .  S
Zr805       O811   2.402       .  S
Zr805       O812   2.418       .  S
Zr805       O813   2.383       .  S
Zr805       O814   2.390       .  S
Zr806       O825   2.435       .  S
Zr806       O818   2.436   1_545  S
Zr806       O819   2.410       .  S
Zr806       O812   2.400       .  S
Zr806       O813   2.393       .  S
Zr807       O809   2.435       .  S
Zr807       O831   2.440       .  S
Zr807       O833   2.422       .  S
Zr807       O811   2.382       .  S
Zr807       O814   2.390       .  S
Zr808       O834   2.435       .  S
Zr808       O835   2.436       .  S
Zr808       O810   2.438       .  S
Zr808       O811   2.386   1_565  S
Zr808       O812   2.378   1_565  S
O809        H846   0.990       .  S
O810        H841   0.991       .  S
O810        H855   0.990       .  S
O812        H838   0.964       .  S
O813       Zr823   2.387       .  S
O814       Zr823   2.383       .  S
O814        H839   0.967       .  S
C815       C2587   1.470       .  S
C816       C2627   1.462       .  S
C817       C2604   1.491       .  S
O818        H854   0.990       .  S
O819        C821   1.283       .  A
O820        C821   1.289       .  A
C821       C2874   1.490       .  S
O822       Zr823   2.441       .  S
O822        H851   0.990       .  S
Zr823       O826   2.437       .  S
Zr823       O827   2.438       .  S
Zr823       O828   2.403       .  S
O824        C829   1.287       .  A
O825        H842   0.990       .  S
O825        H857   0.990       .  S
O826        H843   0.990       .  S
O827        H847   0.989       .  S
O827        H856   0.990       .  S
O828        C829   1.277       .  A
C829       C2594   1.484       .  S
O830        H849   0.989       .  S
O830        H853   0.990       .  S
O831        H845   0.990       .  S
O831        H852   0.990   1_545  S
O832        C836   1.287       .  A
O833        C836   1.283       .  A
O834        H844   0.990       .  S
O835        H848   0.990   1_565  S
C836       C2577   1.474       .  S
Zr859       O860   2.440       .  S
Zr859       O861   2.445       .  S
Zr859       O862   2.456       .  S
Zr859       O865   2.419       .  S
Zr859       O867   2.372       .  S
Zr859       O868   2.388       .  S
Zr859       O869   2.405       .  S
Zr859       O870   2.409       .  S
O860        H916   0.990       .  S
O860        H924   0.990       .  S
O861        C881   1.286       .  A
O862        C883   1.287       .  A
O863       Zr873   2.423       .  S
O863        C882   1.282       .  A
O864       Zr872   2.418       .  S
O864        C883   1.282       .  A
O865        C882   1.281       .  A
O866       Zr874   2.419       .  S
O866        C881   1.281       .  A
O867       Zr872   2.392       .  S
O867       Zr874   2.386       .  S
O868       Zr873   2.399       .  S
O868       Zr874   2.371       .  S
O868        H903   0.966       .  S
O869       Zr872   2.392       .  S
O869       Zr889   2.378       .  S
O869        H906   0.964       .  S
O870       Zr873   2.384       .  S
O870       Zr889   2.386       .  S
Zr871       O896   2.442       .  S
Zr871       O890   2.466       .  S
Zr871       O898   2.474       .  S
Zr871       O886   2.483       .  S
Zr871       O877   2.410       .  S
Zr871       O878   2.418       .  S
Zr871       O879   2.382       .  S
Zr871       O880   2.392       .  S
Zr872       O891   2.437       .  S
Zr872       O884   2.436       .  S
Zr872       O885   2.393       .  S
Zr872       O878   2.401       .  S
Zr872       O879   2.395       .  S
Zr873       O875   2.434       .  S
Zr873       O897   2.439       .  S
Zr873       O899   2.423       .  S
Zr873       O877   2.388       .  S
Zr873       O880   2.389       .  S
Zr874       O900   2.436       .  S
Zr874       O901   2.436       .  S
Zr874       O876   2.436       .  S
Zr874       O877   2.389       .  S
Zr874       O878   2.385       .  S
O875        H912   0.990       .  S
O876        H907   0.990       .  S
O876        H921   0.990       .  S
O878        H904   0.963       .  S
O879       Zr889   2.384       .  S
O880       Zr889   2.381       .  S
O880        H905   0.966       .  S
C881       C2597   1.484       .  S
C882       C2667   1.463       .  S
C883       C2564   1.480       .  S
O884        H920   0.990       .  S
O885        C887   1.275       .  A
O886        C887   1.294       .  A
C887       C2827   1.492       .  S
O888       Zr889   2.439       .  S
O888        H917   0.990       .  S
Zr889       O892   2.436       .  S
Zr889       O893   2.440       .  S
Zr889       O894   2.386       .  S
O890        C895   1.288       .  A
O891        H908   0.990       .  S
O891        H923   0.990       .  S
O892        H909   0.990       .  S
O893        H913   0.990       .  S
O893        H922   0.989       .  S
O894        C895   1.274       .  A
C895       C2584   1.472       .  S
O896        H915   0.990       .  S
O896        H919   0.991       .  S
O897        H911   0.990       .  S
O897        H918   0.990       .  S
O898        C902   1.292       .  A
O899        C902   1.285       .  A
O900        H910   0.990       .  S
O901        H914   0.990       .  S
C902       C2554   1.495       .  S
Zr925       O926   2.441       .  S
Zr925       O927   2.449       .  S
Zr925       O928   2.469       .  S
Zr925       O931   2.442       .  S
Zr925       O933   2.376       .  S
Zr925       O934   2.388       .  S
Zr925       O935   2.406       .  S
Zr925       O936   2.412       .  S
O926        H982   0.991       .  S
O926        H990   0.990       .  S
O927        C947   1.286       .  A
O928        C949   1.291       .  A
O929       Zr939   2.423       .  S
O929        C948   1.283       .  A
O930       Zr938   2.411       .  S
O930        C949   1.278       .  A
O931        C948   1.286       .  A
O932       Zr940   2.402       .  S
O932        C947   1.278       .  A
O933       Zr938   2.393       .  S
O933       Zr940   2.388       .  S
O934       Zr939   2.394       .  S
O934       Zr940   2.372       .  S
O934        H969   0.965       .  S
O935       Zr938   2.393       .  S
O935       Zr955   2.382       .  S
O935        H972   0.965       .  S
O936       Zr939   2.389       .  S
O936       Zr955   2.393       .  S
Zr937       O962   2.441       .  S
Zr937       O956   2.460       .  S
Zr937       O964   2.462       .  S
Zr937       O952   2.487       .  S
Zr937       O943   2.408       .  S
Zr937       O944   2.412       .  S
Zr937       O945   2.382       .  S
Zr937       O946   2.394       .  S
Zr938       O957   2.436       .  S
Zr938       O950   2.436       .  S
Zr938       O951   2.393       .  S
Zr938       O944   2.399       .  S
Zr938       O945   2.394       .  S
Zr939       O941   2.436       .  S
Zr939       O963   2.438       .  S
Zr939       O965   2.420       .  S
Zr939       O943   2.387       .  S
Zr939       O946   2.391       .  S
Zr940       O966   2.434       .  S
Zr940       O967   2.436       .  S
Zr940       O942   2.436       .  S
Zr940       O943   2.382       .  S
Zr940       O944   2.376       .  S
O941        H978   0.990       .  S
O942        H973   0.990       .  S
O942        H987   0.989       .  S
O944        H970   0.963       .  S
O945       Zr955   2.385       .  S
O946       Zr955   2.378       .  S
O946        H971   0.966       .  S
C947       C2534   1.477       .  S
C948       C2687   1.473       .  S
C949       C2567   1.493       .  S
O950        H986   0.990       .  S
O951        C953   1.278       .  A
O952        C953   1.293       .  A
C953       C2807   1.481       .  S
O954       Zr955   2.439       .  S
O954        H983   0.990       .  S
Zr955       O958   2.438       .  S
Zr955       O959   2.438       .  S
Zr955       O960   2.399       .  S
O956        C961   1.288       .  A
O957        H974   0.990       .  S
O957        H989   0.990       .  S
O958        H975   0.990       .  S
O959        H979   0.990       .  S
O959        H988   0.990       .  S
O960        C961   1.278       .  A
C961       C2544   1.483       .  S
O962        H981   0.990       .  S
O962        H985   0.990       .  S
O963        H977   0.990       .  S
O963        H984   0.990       .  S
O964        C968   1.291       .  A
O965        C968   1.282       .  A
O966        H976   0.990       .  S
O967        H980   0.990       .  S
C968       C2524   1.493       .  S
Zr991       O992   2.441       .  S
Zr991       O993   2.446   1_565  S
Zr991       O994   2.468       .  S
Zr991       O997   2.431       .  S
Zr991       O999   2.372       .  S
Zr991      O1000   2.395       .  S
Zr991      O1001   2.410       .  S
Zr991      O1002   2.406       .  S
O992       H1048   0.990   1_565  S
O992       H1056   0.990       .  S
O993       C1013   1.285       .  A
O994       C1015   1.289       .  A
O995      Zr1005   2.422       .  S
O995       C1014   1.282       .  A
O996      Zr1004   2.416       .  S
O996       C1015   1.282       .  A
O997       C1014   1.284       .  A
O998      Zr1006   2.408   1_545  S
O998       C1013   1.278       .  A
O999      Zr1004   2.389       .  S
O999      Zr1006   2.384       .  S
O1000     Zr1005   2.401       .  S
O1000     Zr1006   2.376       .  S
O1000      H1035   0.966       .  S
O1001     Zr1004   2.392       .  S
O1001     Zr1021   2.379       .  S
O1001      H1038   0.964       .  S
O1002     Zr1005   2.386       .  S
O1002     Zr1021   2.379       .  S
Zr1003     O1028   2.440       .  S
Zr1003     O1022   2.470       .  S
Zr1003     O1030   2.461       .  S
Zr1003     O1018   2.487       .  S
Zr1003     O1009   2.412       .  S
Zr1003     O1010   2.418       .  S
Zr1003     O1011   2.384       .  S
Zr1003     O1012   2.391       .  S
Zr1004     O1023   2.435       .  S
Zr1004     O1016   2.436       .  S
Zr1004     O1017   2.395       .  S
Zr1004     O1010   2.400       .  S
Zr1004     O1011   2.395       .  S
Zr1005     O1007   2.437       .  S
Zr1005     O1029   2.436       .  S
Zr1005     O1031   2.424       .  S
Zr1005     O1009   2.388       .  S
Zr1005     O1012   2.387       .  S
Zr1006     O1032   2.435       .  S
Zr1006     O1033   2.436       .  S
Zr1006     O1008   2.437       .  S
Zr1006     O1009   2.392       .  S
Zr1006     O1010   2.377       .  S
O1007      H1044   0.990       .  S
O1008      H1039   0.990   1_565  S
O1008      H1053   0.990       .  S
O1010      H1036   0.962       .  S
O1011     Zr1021   2.387       .  S
O1012     Zr1021   2.380       .  S
O1012      H1037   0.967       .  S
C1013      C2547   1.481       .  S
C1014      C2737   1.464       .  S
C1015      C2607   1.484       .  S
O1016      H1052   0.990       .  S
O1017      C1019   1.279       .  A
O1018      C1019   1.293       .  A
C1019      C2767   1.486       .  S
O1020     Zr1021   2.441       .  S
O1020      H1049   0.990       .  S
Zr1021     O1024   2.437       .  S
Zr1021     O1025   2.437       .  S
Zr1021     O1026   2.388       .  S
O1022      C1027   1.290       .  A
O1023      H1040   0.990       .  S
O1023      H1055   0.990       .  S
O1024      H1041   0.990       .  S
O1025      H1045   0.990       .  S
O1025      H1054   0.990       .  S
O1026      C1027   1.274       .  A
C1027      C2537   1.482       .  S
O1028      H1047   0.989       .  S
O1028      H1051   0.990       .  S
O1029      H1043   0.990       .  S
O1029      H1050   0.990       .  S
O1030      C1034   1.289       .  A
O1031      C1034   1.285       .  A
O1032      H1042   0.990   1_565  S
O1033      H1046   0.990       .  S
C1034      C2517   1.495       .  S
Zr1057     O1058   2.444       .  S
Zr1057     O1059   2.457       .  S
Zr1057     O1060   2.454       .  S
Zr1057     O1063   2.453       .  S
Zr1057     O1065   2.385       .  S
Zr1057     O1066   2.393       .  S
Zr1057     O1067   2.419       .  S
Zr1057     O1068   2.402       .  S
O1058      H1114   0.990       .  S
O1058      H1122   0.990       .  S
O1059      C1079   1.287   1_545  A
O1060      C1081   1.286       .  A
O1061     Zr1071   2.417       .  S
O1061      C1080   1.284       .  A
O1062     Zr1070   2.436       .  S
O1062      C1081   1.285       .  A
O1063      C1080   1.287       .  A
O1064     Zr1072   2.401       .  S
O1064      C1079   1.277   1_545  A
O1065     Zr1070   2.394       .  S
O1065     Zr1072   2.386       .  S
O1066     Zr1071   2.394       .  S
O1066     Zr1072   2.381       .  S
O1066      H1101   0.967       .  S
O1067     Zr1070   2.403       .  S
O1067     Zr1087   2.387       .  S
O1067      H1104   0.964       .  S
O1068     Zr1071   2.386       .  S
O1068     Zr1087   2.384       .  S
Zr1069     O1094   2.442       .  S
Zr1069     O1088   2.452       .  S
Zr1069     O1096   2.452       .  S
Zr1069     O1084   2.452       .  S
Zr1069     O1075   2.400       .  S
Zr1069     O1076   2.412       .  S
Zr1069     O1077   2.384       .  S
Zr1069     O1078   2.383       .  S
Zr1070     O1089   2.435       .  S
Zr1070     O1082   2.435       .  S
Zr1070     O1083   2.428       .  S
Zr1070     O1076   2.400       .  S
Zr1070     O1077   2.406       .  S
Zr1071     O1073   2.435       .  S
Zr1071     O1095   2.437       .  S
Zr1071     O1097   2.432       .  S
Zr1071     O1075   2.384       .  S
Zr1071     O1078   2.390       .  S
Zr1072     O1098   2.436       .  S
Zr1072     O1099   2.437       .  S
Zr1072     O1074   2.436       .  S
Zr1072     O1075   2.382       .  S
Zr1072     O1076   2.381       .  S
O1073      H1110   0.990       .  S
O1074      H1105   0.990       .  S
O1074      H1119   0.990       .  S
O1076      H1102   0.965       .  S
O1077     Zr1087   2.384       .  S
O1078     Zr1087   2.381       .  S
O1078      H1103   0.965       .  S
C1079      C2467   1.488       .  S
C1080      C2484   1.488       .  S
C1081      C2847   1.480       .  S
O1082      H1118   0.990       .  S
O1083      C1085   1.283       .  A
O1084      C1085   1.286       .  A
C1085      C2494   1.471       .  S
O1086     Zr1087   2.441       .  S
O1086      H1115   0.990       .  S
Zr1087     O1090   2.437       .  S
Zr1087     O1091   2.439       .  S
Zr1087     O1092   2.406       .  S
O1088      C1093   1.286       .  A
O1089      H1106   0.990       .  S
O1089      H1121   0.990       .  S
O1090      H1107   0.990       .  S
O1091      H1111   0.990       .  S
O1091      H1120   0.990       .  S
O1092      C1093   1.278       .  A
C1093      C2474   1.474       .  S
O1094      H1113   0.990       .  S
O1094      H1117   0.991       .  S
O1095      H1109   0.990       .  S
O1095      H1116   0.990       .  S
O1096      C1100   1.287       .  A
O1097      C1100   1.284       .  A
O1098      H1108   0.990       .  S
O1099      H1112   0.990       .  S
C1100      C2504   1.475       .  S
Zr1123     O1124   2.442       .  S
Zr1123     O1125   2.449       .  S
Zr1123     O1126   2.452       .  S
Zr1123     O1129   2.452       .  S
Zr1123     O1131   2.383       .  S
Zr1123     O1132   2.388       .  S
Zr1123     O1133   2.417       .  S
Zr1123     O1134   2.393       .  S
O1124      H1180   0.990       .  S
O1124      H1188   0.990       .  S
O1125      C1145   1.286       .  A
O1126      C1147   1.286       .  A
O1127     Zr1137   2.418       .  S
O1127      C1146   1.283       .  A
O1128     Zr1136   2.417       .  S
O1128      C1147   1.283       .  A
O1129      C1146   1.288       .  A
O1130     Zr1138   2.407       .  S
O1130      C1145   1.278       .  A
O1131     Zr1136   2.400       .  S
O1131     Zr1138   2.383       .  S
O1132     Zr1137   2.389       .  S
O1132     Zr1138   2.379       .  S
O1132      H1167   0.966       .  S
O1133     Zr1136   2.404       .  S
O1133     Zr1153   2.390       .  S
O1133      H1170   0.964       .  S
O1134     Zr1137   2.378       .  S
O1134     Zr1153   2.374       .  S
Zr1135     O1160   2.440       .  S
Zr1135     O1154   2.465       .  S
Zr1135     O1162   2.472       .  S
Zr1135     O1150   2.464       .  S
Zr1135     O1141   2.407       .  S
Zr1135     O1142   2.414       .  S
Zr1135     O1143   2.384       .  S
Zr1135     O1144   2.389       .  S
Zr1136     O1155   2.437       .  S
Zr1136     O1148   2.435       .  S
Zr1136     O1149   2.434       .  S
Zr1136     O1142   2.393       .  S
Zr1136     O1143   2.395       .  S
Zr1137     O1139   2.436       .  S
Zr1137     O1161   2.438       .  S
Zr1137     O1163   2.408       .  S
Zr1137     O1141   2.386       .  S
Zr1137     O1144   2.399       .  S
Zr1138     O1164   2.435       .  S
Zr1138     O1165   2.434       .  S
Zr1138     O1140   2.437       .  S
Zr1138     O1141   2.391       .  S
Zr1138     O1142   2.377       .  S
O1139      H1176   0.990       .  S
O1140      H1171   0.990       .  S
O1140      H1185   0.990       .  S
O1142      H1168   0.964       .  S
O1143     Zr1153   2.388       .  S
O1144     Zr1153   2.385       .  S
O1144      H1169   0.965       .  S
C1145      C2477   1.477       .  S
C1146      C2437   1.480       .  S
C1147      C2817   1.477       .  S
O1148      H1184   0.990       .  S
O1149      C1151   1.285       .  A
O1150      C1151   1.290       .  A
C1151      C2444   1.483       .  S
O1152     Zr1153   2.440       .  S
O1152      H1181   0.990       .  S
Zr1153     O1156   2.435       .  S
Zr1153     O1157   2.442       .  S
Zr1153     O1158   2.397       .  S
O1154      C1159   1.290       .  A
O1155      H1172   0.990       .  S
O1155      H1187   0.990       .  S
O1156      H1173   0.990       .  S
O1157      H1177   0.990       .  S
O1157      H1186   0.990       .  S
O1158      C1159   1.275       .  A
C1159      C2464   1.489       .  S
O1160      H1179   0.991       .  S
O1160      H1183   0.990       .  S
O1161      H1175   0.990       .  S
O1161      H1182   0.990       .  S
O1162      C1166   1.290       .  A
O1163      C1166   1.281       .  A
O1164      H1174   0.990       .  S
O1165      H1178   0.990       .  S
C1166      C2457   1.485       .  S
Zr1189     O1190   2.440       .  S
Zr1189     O1191   2.468       .  S
Zr1189     O1192   2.477       .  S
Zr1189     O1195   2.455       .  S
Zr1189     O1197   2.379       .  S
Zr1189     O1198   2.395       .  S
Zr1189     O1199   2.416       .  S
Zr1189     O1200   2.407       .  S
O1190      H1246   0.990       .  S
O1190      H1254   0.990       .  S
O1191      C1211   1.289       .  A
O1192      C1213   1.292       .  A
O1193     Zr1203   2.402       .  S
O1193      C1212   1.279       .  A
O1194     Zr1202   2.422       .  S
O1194      C1213   1.281       .  A
O1195      C1212   1.288       .  A
O1196     Zr1204   2.397       .  S
O1196      C1211   1.276       .  A
O1197     Zr1202   2.388       .  S
O1197     Zr1204   2.386       .  S
O1198     Zr1203   2.402       .  S
O1198     Zr1204   2.379       .  S
O1198      H1233   0.966       .  S
O1199     Zr1202   2.395       .  S
O1199     Zr1219   2.388       .  S
O1199      H1236   0.964       .  S
O1200     Zr1203   2.386       .  S
O1200     Zr1219   2.379       .  S
Zr1201     O1226   2.442       .  S
Zr1201     O1220   2.448       .  S
Zr1201     O1228   2.459       .  S
Zr1201     O1216   2.444       .  S
Zr1201     O1207   2.395       .  S
Zr1201     O1208   2.413       .  S
Zr1201     O1209   2.383       .  S
Zr1201     O1210   2.379       .  S
Zr1202     O1221   2.435       .  S
Zr1202     O1214   2.435       .  S
Zr1202     O1215   2.400       .  S
Zr1202     O1208   2.403       .  S
Zr1202     O1209   2.397       .  S
Zr1203     O1205   2.437       .  S
Zr1203     O1227   2.436       .  S
Zr1203     O1229   2.429       .  S
Zr1203     O1207   2.377       .  S
Zr1203     O1210   2.389       .  S
Zr1204     O1230   2.437       .  S
Zr1204     O1231   2.437       .  S
Zr1204     O1206   2.437       .  S
Zr1204     O1207   2.380       .  S
Zr1204     O1208   2.390       .  S
O1205      H1242   0.990       .  S
O1206      H1237   0.991       .  S
O1206      H1251   0.990       .  S
O1208      H1234   0.965       .  S
O1209     Zr1219   2.380       .  S
O1210     Zr1219   2.384       .  S
O1210      H1235   0.965       .  S
C1211      C2394   1.486       .  S
C1212      C2417   1.464       .  S
C1213      C2777   1.494       .  S
O1214      H1250   0.990       .  S
O1215      C1217   1.278       .  A
O1216      C1217   1.284       .  A
C1217      C2424   1.458       .  S
O1218     Zr1219   2.440       .  S
O1218      H1247   0.990       .  S
Zr1219     O1222   2.438       .  S
Zr1219     O1223   2.439       .  S
Zr1219     O1224   2.398       .  S
O1220      C1225   1.287       .  A
O1221      H1238   0.990       .  S
O1221      H1253   0.990       .  S
O1222      H1239   0.990       .  S
O1223      H1243   0.990       .  S
O1223      H1252   0.989       .  S
O1224      C1225   1.276       .  A
C1225      C2404   1.479       .  S
O1226      H1245   0.990       .  S
O1226      H1249   0.990       .  S
O1227      H1241   0.990       .  S
O1227      H1248   0.990       .  S
O1228      C1232   1.289       .  A
O1229      C1232   1.285       .  A
O1230      H1240   0.990       .  S
O1231      H1244   0.990       .  S
C1232      C2507   1.492       .  S
Zr1255     O1256   2.442       .  S
Zr1255     O1257   2.461       .  S
Zr1255     O1258   2.464       .  S
Zr1255     O1261   2.454       .  S
Zr1255     O1263   2.384       .  S
Zr1255     O1264   2.391       .  S
Zr1255     O1265   2.416       .  S
Zr1255     O1266   2.404       .  S
O1256      H1312   0.991       .  S
O1256      H1320   0.990       .  S
O1257      C1277   1.288       .  A
O1258      C1279   1.288       .  A
O1259     Zr1269   2.415       .  S
O1259      C1278   1.282       .  A
O1260     Zr1268   2.439       .  S
O1260      C1279   1.285       .  A
O1261      C1278   1.288       .  A
O1262     Zr1270   2.394       .  S
O1262      C1277   1.275       .  A
O1263     Zr1268   2.394       .  S
O1263     Zr1270   2.392       .  S
O1264     Zr1269   2.396       .  S
O1264     Zr1270   2.379       .  S
O1264      H1299   0.968       .  S
O1265     Zr1268   2.394       .  S
O1265     Zr1285   2.379       .  S
O1265      H1302   0.963       .  S
O1266     Zr1269   2.382       .  S
O1266     Zr1285   2.385       .  S
Zr1267     O1292   2.441       .  S
Zr1267     O1286   2.461       .  S
Zr1267     O1294   2.479       .  S
Zr1267     O1282   2.450       .  S
Zr1267     O1273   2.403       .  S
Zr1267     O1274   2.418       .  S
Zr1267     O1275   2.391       .  S
Zr1267     O1276   2.386       .  S
Zr1268     O1287   2.438       .  S
Zr1268     O1280   2.435       .  S
Zr1268     O1281   2.417       .  S
Zr1268     O1274   2.401       .  S
Zr1268     O1275   2.404       .  S
Zr1269     O1271   2.436       .  S
Zr1269     O1293   2.439       .  S
Zr1269     O1295   2.416       .  S
Zr1269     O1273   2.389       .  S
Zr1269     O1276   2.390       .  S
Zr1270     O1296   2.435       .  S
Zr1270     O1297   2.435       .  S
Zr1270     O1272   2.436       .  S
Zr1270     O1273   2.381       .  S
Zr1270     O1274   2.383       .  S
O1271      H1308   0.990       .  S
O1272      H1303   0.991       .  S
O1272      H1317   0.990       .  S
O1274      H1300   0.964       .  S
O1275     Zr1285   2.376       .  S
O1276     Zr1285   2.381       .  S
O1276      H1301   0.965       .  S
C1277      C2407   1.482       .  S
C1278      C2374   1.473       .  S
C1279      C2757   1.490       .  S
O1280      H1316   0.990       .  S
O1281      C1283   1.281       .  A
O1282      C1283   1.287       .  A
C1283      C2384   1.469       .  S
O1284     Zr1285   2.439       .  S
O1284      H1313   0.990       .  S
Zr1285     O1288   2.437       .  S
Zr1285     O1289   2.438       .  S
Zr1285     O1290   2.407       .  S
O1286      C1291   1.288       .  A
O1287      H1304   0.991       .  S
O1287      H1319   0.990       .  S
O1288      H1305   0.990       .  S
O1289      H1309   0.990       .  S
O1289      H1318   0.990       .  S
O1290      C1291   1.279       .  A
C1291      C2397   1.483       .  S
O1292      H1311   0.990       .  S
O1292      H1315   0.991       .  S
O1293      H1307   0.990       .  S
O1293      H1314   0.990       .  S
O1294      C1298   1.292       .  A
O1295      C1298   1.280       .  A
O1296      H1306   0.990       .  S
O1297      H1310   0.990       .  S
C1298      C2454   1.501       .  S
Zr1321     O1322   2.440       .  S
Zr1321     O1323   2.465       .  S
Zr1321     O1324   2.467       .  S
Zr1321     O1327   2.474       .  S
Zr1321     O1329   2.384       .  S
Zr1321     O1330   2.395       .  S
Zr1321     O1331   2.419       .  S
Zr1321     O1332   2.397       .  S
O1322      H1378   0.990       .  S
O1322      H1386   0.990       .  S
O1323      C1343   1.290       .  A
O1324      C1345   1.290       .  A
O1325     Zr1335   2.400       .  S
O1325      C1344   1.281       .  A
O1326     Zr1334   2.432       .  S
O1326      C1345   1.284       .  A
O1327      C1344   1.291       .  A
O1328     Zr1336   2.388       .  S
O1328      C1343   1.273       .  A
O1329     Zr1334   2.392       .  S
O1329     Zr1336   2.384       .  S
O1330     Zr1335   2.394       .  S
O1330     Zr1336   2.381       .  S
O1330      H1365   0.965       .  S
O1331     Zr1334   2.397       .  S
O1331     Zr1351   2.383       .  S
O1331      H1368   0.964       .  S
O1332     Zr1335   2.382       .  S
O1332     Zr1351   2.377       .  S
Zr1333     O1358   2.441       .  S
Zr1333     O1352   2.462       .  S
Zr1333     O1360   2.474       .  S
Zr1333     O1348   2.453       .  S
Zr1333     O1339   2.395       .  S
Zr1333     O1340   2.417       .  S
Zr1333     O1341   2.384       .  S
Zr1333     O1342   2.385       .  S
Zr1334     O1353   2.436       .  S
Zr1334     O1346   2.434       .  S
Zr1334     O1347   2.418       .  S
Zr1334     O1340   2.401       .  S
Zr1334     O1341   2.396       .  S
Zr1335     O1337   2.437       .  S
Zr1335     O1359   2.440       .  S
Zr1335     O1361   2.410       .  S
Zr1335     O1339   2.381       .  S
Zr1335     O1342   2.392       .  S
Zr1336     O1362   2.435       .  S
Zr1336     O1363   2.436       .  S
Zr1336     O1338   2.438       .  S
Zr1336     O1339   2.379       .  S
Zr1336     O1340   2.380       .  S
O1337      H1374   0.990       .  S
O1338      H1369   0.990       .  S
O1338      H1383   0.990       .  S
O1340      H1366   0.965       .  S
O1341     Zr1351   2.379       .  S
O1342     Zr1351   2.387       .  S
O1342      H1367   0.965       .  S
C1343      C2337   1.488       .  S
C1344      C2357   1.488       .  S
C1345      C3017   1.487       .  S
O1346      H1382   0.990       .  S
O1347      C1349   1.282       .  A
O1348      C1349   1.288       .  A
C1349      C2497   1.475       .  S
O1350     Zr1351   2.440       .  S
O1350      H1379   0.990       .  S
Zr1351     O1354   2.438       .  S
Zr1351     O1355   2.438       .  S
Zr1351     O1356   2.395       .  S
O1352      C1357   1.289       .  A
O1353      H1370   0.990       .  S
O1353      H1385   0.990       .  S
O1354      H1371   0.990       .  S
O1355      H1375   0.990       .  S
O1355      H1384   0.990       .  S
O1356      C1357   1.276       .  A
C1357      C2344   1.474       .  S
O1358      H1377   0.990       .  S
O1358      H1381   0.991       .  S
O1359      H1373   0.990       .  S
O1359      H1380   0.990       .  S
O1360      C1364   1.292       .  A
O1361      C1364   1.279       .  A
O1362      H1372   0.990       .  S
O1363      H1376   0.990       .  S
C1364      C2364   1.496       .  S
Zr1387     O1388   2.441       .  S
Zr1387     O1389   2.445       .  S
Zr1387     O1390   2.455       .  S
Zr1387     O1393   2.463       .  S
Zr1387     O1395   2.385       .  S
Zr1387     O1396   2.390       .  S
Zr1387     O1397   2.413       .  S
Zr1387     O1398   2.393       .  S
O1388      H1444   0.991       .  S
O1388      H1452   0.990       .  S
O1389      C1409   1.285       .  A
O1390      C1411   1.287       .  A
O1391     Zr1401   2.418       .  S
O1391      C1410   1.283       .  A
O1392     Zr1400   2.428       .  S
O1392      C1411   1.284       .  A
O1393      C1410   1.290       .  A
O1394     Zr1402   2.407       .  S
O1394      C1409   1.278       .  A
O1395     Zr1400   2.395       .  S
O1395     Zr1402   2.382       .  S
O1396     Zr1401   2.395       .  S
O1396     Zr1402   2.379       .  S
O1396      H1431   0.966       .  S
O1397     Zr1400   2.400       .  S
O1397     Zr1417   2.381       .  S
O1397      H1434   0.962       .  S
O1398     Zr1401   2.381       .  S
O1398     Zr1417   2.369       .  S
Zr1399     O1424   2.441       .  S
Zr1399     O1418   2.466       .  S
Zr1399     O1426   2.464       .  S
Zr1399     O1414   2.474       .  S
Zr1399     O1405   2.411       .  S
Zr1399     O1406   2.415       .  S
Zr1399     O1407   2.381       .  S
Zr1399     O1408   2.388       .  S
Zr1400     O1419   2.434       .  S
Zr1400     O1412   2.435       .  S
Zr1400     O1413   2.417       .  S
Zr1400     O1406   2.401       .  S
Zr1400     O1407   2.398       .  S
Zr1401     O1403   2.436       .  S
Zr1401     O1425   2.438       .  S
Zr1401     O1427   2.421       .  S
Zr1401     O1405   2.384       .  S
Zr1401     O1408   2.397       .  S
Zr1402     O1428   2.437       .  S
Zr1402     O1429   2.435       .  S
Zr1402     O1404   2.436       .  S
Zr1402     O1405   2.391       .  S
Zr1402     O1406   2.382       .  S
O1403      H1440   0.990       .  S
O1404      H1435   0.990       .  S
O1404      H1449   0.990       .  S
O1406      H1432   0.964       .  S
O1407     Zr1417   2.385       .  S
O1408     Zr1417   2.385       .  S
O1408      H1433   0.965       .  S
C1409      C2347   1.477   1_565  S
C1410      C2314   1.477       .  S
C1411      C2977   1.481       .  S
O1412      H1448   0.990       .  S
O1413      C1415   1.281       .  A
O1414      C1415   1.290       .  A
C1415      C2447   1.474       .  S
O1416     Zr1417   2.439       .  S
O1416      H1445   0.990       .  S
Zr1417     O1420   2.437       .  S
Zr1417     O1421   2.440       .  S
Zr1417     O1422   2.381       .  S
O1418      C1423   1.290       .  A
O1419      H1436   0.990       .  S
O1419      H1451   0.990       .  S
O1420      H1437   0.990       .  S
O1421      H1441   0.990       .  S
O1421      H1450   0.990       .  S
O1422      C1423   1.272       .  A
C1423      C2334   1.487       .  S
O1424      H1443   0.990       .  S
O1424      H1447   0.990       .  S
O1425      H1439   0.990       .  S
O1425      H1446   0.990       .  S
O1426      C1430   1.289       .  A
O1427      C1430   1.284       .  A
O1428      H1438   0.990       .  S
O1429      H1442   0.990       .  S
C1430      C2324   1.497       .  S
Zr1453     O1454   2.439       .  S
Zr1453     O1455   2.454       .  S
Zr1453     O1456   2.465       .  S
Zr1453     O1459   2.475       .  S
Zr1453     O1461   2.383       .  S
Zr1453     O1462   2.399       .  S
Zr1453     O1463   2.418       .  S
Zr1453     O1464   2.398       .  S
O1454      H1510   0.990       .  S
O1454      H1518   0.991       .  S
O1455      C1475   1.286   1_545  A
O1456      C1477   1.289       .  A
O1457     Zr1467   2.412       .  S
O1457      C1476   1.283       .  A
O1458     Zr1466   2.419       .  S
O1458      C1477   1.282       .  A
O1459      C1476   1.291       .  A
O1460     Zr1468   2.403       .  S
O1460      C1475   1.278   1_545  A
O1461     Zr1466   2.393       .  S
O1461     Zr1468   2.380       .  S
O1462     Zr1467   2.393       .  S
O1462     Zr1468   2.382       .  S
O1462      H1497   0.966       .  S
O1463     Zr1466   2.401       .  S
O1463     Zr1483   2.388       .  S
O1463      H1500   0.964       .  S
O1464     Zr1467   2.384       .  S
O1464     Zr1483   2.377       .  S
Zr1465     O1490   2.440       .  S
Zr1465     O1484   2.462       .  S
Zr1465     O1492   2.459       .  S
Zr1465     O1480   2.438       .  S
Zr1465     O1471   2.410       .  S
Zr1465     O1472   2.416       .  S
Zr1465     O1473   2.380       .  S
Zr1465     O1474   2.378       .  S
Zr1466     O1485   2.435       .  S
Zr1466     O1478   2.435       .  S
Zr1466     O1479   2.423       .  S
Zr1466     O1472   2.398       .  S
Zr1466     O1473   2.394       .  S
Zr1467     O1469   2.436       .  S
Zr1467     O1491   2.439       .  S
Zr1467     O1493   2.416       .  S
Zr1467     O1471   2.388       .  S
Zr1467     O1474   2.395       .  S
Zr1468     O1494   2.434       .  S
Zr1468     O1495   2.436       .  S
Zr1468     O1470   2.439       .  S
Zr1468     O1471   2.399       .  S
Zr1468     O1472   2.378       .  S
O1469      H1506   0.990       .  S
O1470      H1501   0.990       .  S
O1470      H1515   0.990       .  S
O1472      H1498   0.964       .  S
O1473     Zr1483   2.379       .  S
O1474     Zr1483   2.382       .  S
O1474      H1499   0.966       .  S
C1475      C2287   1.476       .  S
C1476      C2304   1.498       .  S
C1477      C2924   1.485       .  S
O1478      H1514   0.990       .  S
O1479      C1481   1.283       .  A
O1480      C1481   1.285       .  A
C1481      C2427   1.468       .  S
O1482     Zr1483   2.437       .  S
O1482      H1511   0.990       .  S
Zr1483     O1486   2.437       .  S
Zr1483     O1487   2.440       .  S
Zr1483     O1488   2.394       .  S
O1484      C1489   1.288       .  A
O1485      H1502   0.990       .  S
O1485      H1517   0.990       .  S
O1486      H1503   0.990       .  S
O1487      H1507   0.990       .  S
O1487      H1516   0.990       .  S
O1488      C1489   1.277       .  A
C1489      C2294   1.483       .  S
O1490      H1509   0.990       .  S
O1490      H1513   0.990       .  S
O1491      H1505   0.990       .  S
O1491      H1512   0.990       .  S
O1492      C1496   1.287       .  A
O1493      C1496   1.282       .  A
O1494      H1504   0.990       .  S
O1495      H1508   0.990       .  S
C1496      C2367   1.487       .  S
Zr1519     O1520   2.440       .  S
Zr1519     O1521   2.458       .  S
Zr1519     O1522   2.461       .  S
Zr1519     O1525   2.456       .  S
Zr1519     O1527   2.379       .  S
Zr1519     O1528   2.394       .  S
Zr1519     O1529   2.416       .  S
Zr1519     O1530   2.395       .  S
O1520      H1576   0.990       .  S
O1520      H1584   0.990       .  S
O1521      C1541   1.287       .  A
O1522      C1543   1.288       .  A
O1523     Zr1533   2.415       .  S
O1523      C1542   1.281       .  A
O1524     Zr1532   2.428       .  S
O1524      C1543   1.283       .  A
O1525      C1542   1.288       .  A
O1526     Zr1534   2.395       .  S
O1526      C1541   1.276       .  A
O1527     Zr1532   2.391       .  S
O1527     Zr1534   2.386       .  S
O1528     Zr1533   2.399       .  S
O1528     Zr1534   2.385       .  S
O1528      H1563   0.966       .  S
O1529     Zr1532   2.394       .  S
O1529     Zr1549   2.387       .  S
O1529      H1566   0.964       .  S
O1530     Zr1533   2.378       .  S
O1530     Zr1549   2.376       .  S
Zr1531     O1556   2.441       .  S
Zr1531     O1550   2.457       .  S
Zr1531     O1558   2.469       .  S
Zr1531     O1546   2.453       .  S
Zr1531     O1537   2.400       .  S
Zr1531     O1538   2.419       .  S
Zr1531     O1539   2.388       .  S
Zr1531     O1540   2.382       .  S
Zr1532     O1551   2.436       .  S
Zr1532     O1544   2.436       .  S
Zr1532     O1545   2.411       .  S
Zr1532     O1538   2.407       .  S
Zr1532     O1539   2.399       .  S
Zr1533     O1535   2.434       .  S
Zr1533     O1557   2.437       .  S
Zr1533     O1559   2.423       .  S
Zr1533     O1537   2.384       .  S
Zr1533     O1540   2.393       .  S
Zr1534     O1560   2.437       .  S
Zr1534     O1561   2.436       .  S
Zr1534     O1536   2.439       .  S
Zr1534     O1537   2.388       .  S
Zr1534     O1538   2.383       .  S
O1535      H1572   0.990       .  S
O1536      H1567   0.991       .  S
O1536      H1581   0.990       .  S
O1538      H1564   0.965       .  S
O1539     Zr1549   2.381       .  S
O1540     Zr1549   2.385       .  S
O1540      H1565   0.966       .  S
C1541      C2297   1.481       .  S
C1542      C2274   1.465       .  S
C1543      C2897   1.482       .  S
O1544      H1580   0.990       .  S
O1545      C1547   1.279       .  A
O1546      C1547   1.289       .  A
C1547      C2387   1.491       .  S
O1548     Zr1549   2.440       .  S
O1548      H1577   0.991       .  S
Zr1549     O1552   2.436       .  S
Zr1549     O1553   2.440       .  S
Zr1549     O1554   2.403       .  S
O1550      C1555   1.288       .  A
O1551      H1568   0.990       .  S
O1551      H1583   0.990       .  S
O1552      H1569   0.989       .  S
O1553      H1573   0.990       .  S
O1553      H1582   0.990       .  S
O1554      C1555   1.278       .  A
C1555      C2284   1.478       .  S
O1556      H1575   0.990       .  S
O1556      H1579   0.990       .  S
O1557      H1571   0.990       .  S
O1557      H1578   0.990       .  S
O1558      C1562   1.291       .  A
O1559      C1562   1.283       .  A
O1560      H1570   0.990       .  S
O1561      H1574   0.990       .  S
C1562      C2327   1.496       .  S
Zr1585     O1586   2.442       .  S
Zr1585     O1587   2.449       .  S
Zr1585     O1588   2.485       .  S
Zr1585     O1591   2.455       .  S
Zr1585     O1593   2.379       .  S
Zr1585     O1594   2.400       .  S
Zr1585     O1595   2.408       .  S
Zr1585     O1596   2.404       .  S
O1586      H1642   0.991       .  S
O1586      H1650   0.990       .  S
O1587      C1607   1.287       .  A
O1588      C1609   1.292       .  A
O1589     Zr1599   2.423       .  S
O1589      C1608   1.284       .  A
O1590     Zr1598   2.415       .  S
O1590      C1609   1.282       .  A
O1591      C1608   1.289       .  A
O1592     Zr1600   2.412       .  S
O1592      C1607   1.278       .  A
O1593     Zr1598   2.393       .  S
O1593     Zr1600   2.386       .  S
O1594     Zr1599   2.401       .  S
O1594     Zr1600   2.378       .  S
O1594      H1629   0.966       .  S
O1595     Zr1598   2.399       .  S
O1595     Zr1615   2.385   1_545  S
O1595      H1632   0.964       .  S
O1596     Zr1599   2.389       .  S
O1596     Zr1615   2.374   1_545  S
Zr1597     O1622   2.442       .  S
Zr1597     O1616   2.451       .  S
Zr1597     O1624   2.442       .  S
Zr1597     O1612   2.458       .  S
Zr1597     O1603   2.406   1_565  S
Zr1597     O1604   2.408   1_565  S
Zr1597     O1605   2.377       .  S
Zr1597     O1606   2.386       .  S
Zr1598     O1617   2.435   1_545  S
Zr1598     O1610   2.435       .  S
Zr1598     O1611   2.416       .  S
Zr1598     O1604   2.398       .  S
Zr1598     O1605   2.397   1_545  S
Zr1599     O1601   2.437       .  S
Zr1599     O1623   2.436       .  S
Zr1599     O1625   2.443       .  S
Zr1599     O1603   2.380       .  S
Zr1599     O1606   2.397   1_545  S
Zr1600     O1626   2.437       .  S
Zr1600     O1627   2.435       .  S
Zr1600     O1602   2.434       .  S
Zr1600     O1603   2.389       .  S
Zr1600     O1604   2.383       .  S
O1601      H1638   0.990       .  S
O1602      H1633   0.989       .  S
O1602      H1647   0.990       .  S
O1604      H1630   0.964       .  S
O1605     Zr1615   2.386       .  S
O1606     Zr1615   2.383       .  S
O1606      H1631   0.965       .  S
C1607      C2244   1.491       .  S
C1608      C2307   1.477       .  S
C1609      C2707   1.484       .  S
O1610      H1646   0.990       .  S
O1611      C1613   1.281   1_545  A
O1612      C1613   1.287       .  A
C1613      C2254   1.468       .  S
O1614     Zr1615   2.440       .  S
O1614      H1643   0.990       .  S
Zr1615     O1618   2.438       .  S
Zr1615     O1619   2.440       .  S
Zr1615     O1620   2.402       .  S
O1616      C1621   1.287       .  A
O1617      H1634   0.990   1_565  S
O1617      H1649   0.990       .  S
O1618      H1635   0.990       .  S
O1619      H1639   0.989       .  S
O1619      H1648   0.990       .  S
O1620      C1621   1.277       .  A
C1621      C2237   1.476       .  S
O1622      H1641   0.991       .  S
O1622      H1645   0.990       .  S
O1623      H1637   0.990       .  S
O1623      H1644   0.990       .  S
O1624      C1628   1.286       .  A
O1625      C1628   1.286   1_545  A
O1626      H1636   0.990       .  S
O1627      H1640   0.990       .  S
C1628      C2264   1.493       .  S
Zr1651     O1652   2.441       .  S
Zr1651     O1653   2.430       .  S
Zr1651     O1654   2.472       .  S
Zr1651     O1657   2.451       .  S
Zr1651     O1659   2.383       .  S
Zr1651     O1660   2.399       .  S
Zr1651     O1661   2.405       .  S
Zr1651     O1662   2.392       .  S
O1652      H1708   0.991       .  S
O1652      H1716   0.990       .  S
O1653      C1673   1.282       .  A
O1654      C1675   1.290       .  A
O1655     Zr1665   2.410       .  S
O1655      C1674   1.282       .  A
O1656     Zr1664   2.430       .  S
O1656      C1675   1.283       .  A
O1657      C1674   1.288       .  A
O1658     Zr1666   2.412       .  S
O1658      C1673   1.279       .  A
O1659     Zr1664   2.394       .  S
O1659     Zr1666   2.384       .  S
O1660     Zr1665   2.401       .  S
O1660     Zr1666   2.375       .  S
O1660      H1695   0.967       .  S
O1661     Zr1664   2.395       .  S
O1661     Zr1681   2.384       .  S
O1661      H1698   0.965       .  S
O1662     Zr1665   2.387       .  S
O1662     Zr1681   2.370       .  S
Zr1663     O1688   2.441       .  S
Zr1663     O1682   2.464       .  S
Zr1663     O1690   2.458       .  S
Zr1663     O1678   2.455       .  S
Zr1663     O1669   2.405       .  S
Zr1663     O1670   2.417       .  S
Zr1663     O1671   2.383       .  S
Zr1663     O1672   2.379       .  S
Zr1664     O1683   2.437       .  S
Zr1664     O1676   2.435       .  S
Zr1664     O1677   2.416       .  S
Zr1664     O1670   2.406       .  S
Zr1664     O1671   2.397       .  S
Zr1665     O1667   2.435       .  S
Zr1665     O1689   2.438       .  S
Zr1665     O1691   2.435       .  S
Zr1665     O1669   2.382       .  S
Zr1665     O1672   2.392       .  S
Zr1666     O1692   2.436       .  S
Zr1666     O1693   2.435       .  S
Zr1666     O1668   2.437       .  S
Zr1666     O1669   2.394       .  S
Zr1666     O1670   2.387       .  S
O1667      H1704   0.990       .  S
O1668      H1699   0.990       .  S
O1668      H1713   0.990       .  S
O1670      H1696   0.964       .  S
O1671     Zr1681   2.384       .  S
O1672     Zr1681   2.389       .  S
O1672      H1697   0.966       .  S
C1673      C2234   1.471       .  S
C1674      C2277   1.470       .  S
C1675      C2677   1.498       .  S
O1676      H1712   0.990       .  S
O1677      C1679   1.281       .  A
O1678      C1679   1.287       .  A
C1679      C2214   1.466       .  S
O1680     Zr1681   2.442       .  S
O1680      H1709   0.990       .  S
Zr1681     O1684   2.437       .  S
Zr1681     O1685   2.440       .  S
Zr1681     O1686   2.395       .  S
O1682      C1687   1.289       .  A
O1683      H1700   0.990       .  S
O1683      H1715   0.990       .  S
O1684      H1701   0.990       .  S
O1685      H1705   0.990       .  S
O1685      H1714   0.989       .  S
O1686      C1687   1.276       .  A
C1687      C2247   1.490       .  S
O1688      H1707   0.990       .  S
O1688      H1711   0.990       .  S
O1689      H1703   0.990       .  S
O1689      H1710   0.990       .  S
O1690      C1694   1.289       .  A
O1691      C1694   1.284       .  A
O1692      H1702   0.990       .  S
O1693      H1706   0.990       .  S
C1694      C2224   1.497       .  S
Zr1717     O1718   2.442       .  S
Zr1717     O1719   2.455       .  S
Zr1717     O1720   2.459       .  S
Zr1717     O1723   2.451       .  S
Zr1717     O1725   2.381       .  S
Zr1717     O1726   2.389       .  S
Zr1717     O1727   2.414       .  S
Zr1717     O1728   2.405       .  S
O1718      H1774   0.990       .  S
O1718      H1782   0.991       .  S
O1719      C1739   1.287       .  A
O1720      C1741   1.288       .  A
O1721     Zr1731   2.411       .  S
O1721      C1740   1.281       .  A
O1722     Zr1730   2.434       .  S
O1722      C1741   1.284       .  A
O1723      C1740   1.287       .  A
O1724     Zr1732   2.398       .  S
O1724      C1739   1.277       .  A
O1725     Zr1730   2.391       .  S
O1725     Zr1732   2.385       .  S
O1726     Zr1731   2.395       .  S
O1726     Zr1732   2.382       .  S
O1726      H1761   0.966       .  S
O1727     Zr1730   2.398       .  S
O1727     Zr1747   2.381       .  S
O1727      H1764   0.963       .  S
O1728     Zr1731   2.388       .  S
O1728     Zr1747   2.388       .  S
Zr1729     O1754   2.439       .  S
Zr1729     O1748   2.448       .  S
Zr1729     O1756   2.469       .  S
Zr1729     O1744   2.446       .  S
Zr1729     O1735   2.398       .  S
Zr1729     O1736   2.417       .  S
Zr1729     O1737   2.383       .  S
Zr1729     O1738   2.382       .  S
Zr1730     O1749   2.436       .  S
Zr1730     O1742   2.436       .  S
Zr1730     O1743   2.410       .  S
Zr1730     O1736   2.410       .  S
Zr1730     O1737   2.402       .  S
Zr1731     O1733   2.436       .  S
Zr1731     O1755   2.435       .  S
Zr1731     O1757   2.425       .  S
Zr1731     O1735   2.382       .  S
Zr1731     O1738   2.394       .  S
Zr1732     O1758   2.437       .  S
Zr1732     O1759   2.435       .  S
Zr1732     O1734   2.437       .  S
Zr1732     O1735   2.389       .  S
Zr1732     O1736   2.386       .  S
O1733      H1770   0.990       .  S
O1734      H1765   0.990       .  S
O1734      H1779   0.990       .  S
O1736      H1762   0.964       .  S
O1737     Zr1747   2.377       .  S
O1738     Zr1747   2.384       .  S
O1738      H1763   0.966       .  S
C1739      C2194   1.480       .  S
C1740      C2354   1.477       .  S
C1741      C2634   1.480       .  S
O1742      H1778   0.990       .  S
O1743      C1745   1.280       .  A
O1744      C1745   1.285       .  A
C1745      C2204   1.460       .  S
O1746     Zr1747   2.439       .  S
O1746      H1775   0.990       .  S
Zr1747     O1750   2.438       .  S
Zr1747     O1751   2.439       .  S
Zr1747     O1752   2.400       .  S
O1748      C1753   1.285       .  A
O1749      H1766   0.990       .  S
O1749      H1781   0.990       .  S
O1750      H1767   0.990       .  S
O1751      H1771   0.990       .  S
O1751      H1780   0.990       .  S
O1752      C1753   1.277       .  A
C1753      C2184   1.479       .  S
O1754      H1773   0.990       .  S
O1754      H1777   0.991       .  S
O1755      H1769   0.990       .  S
O1755      H1776   0.990       .  S
O1756      C1760   1.290       .  A
O1757      C1760   1.284       .  A
O1758      H1768   0.990       .  S
O1759      H1772   0.990       .  S
C1760      C2227   1.503       .  S
Zr1783     O1784   2.443       .  S
Zr1783     O1785   2.465       .  S
Zr1783     O1786   2.454       .  S
Zr1783     O1789   2.456       .  S
Zr1783     O1791   2.379       .  S
Zr1783     O1792   2.390       .  S
Zr1783     O1793   2.421       .  S
Zr1783     O1794   2.402       .  S
O1784      H1840   0.990       .  S
O1784      H1848   0.991       .  S
O1785      C1805   1.289       .  A
O1786      C1807   1.286       .  A
O1787     Zr1797   2.411       .  S
O1787      C1806   1.280       .  A
O1788     Zr1796   2.430       .  S
O1788      C1807   1.284       .  A
O1789      C1806   1.288       .  A
O1790     Zr1798   2.389       .  S
O1790      C1805   1.275       .  A
O1791     Zr1796   2.393       .  S
O1791     Zr1798   2.385       .  S
O1792     Zr1797   2.394       .  S
O1792     Zr1798   2.386       .  S
O1792      H1827   0.967       .  S
O1793     Zr1796   2.396       .  S
O1793     Zr1813   2.389       .  S
O1793      H1830   0.963       .  S
O1794     Zr1797   2.381       .  S
O1794     Zr1813   2.383       .  S
Zr1795     O1820   2.439       .  S
Zr1795     O1814   2.450   1_565  S
Zr1795     O1822   2.469       .  S
Zr1795     O1810   2.463       .  S
Zr1795     O1801   2.402       .  S
Zr1795     O1802   2.413       .  S
Zr1795     O1803   2.386       .  S
Zr1795     O1804   2.387       .  S
Zr1796     O1815   2.436       .  S
Zr1796     O1808   2.436       .  S
Zr1796     O1809   2.410       .  S
Zr1796     O1802   2.407       .  S
Zr1796     O1803   2.400       .  S
Zr1797     O1799   2.437       .  S
Zr1797     O1821   2.436       .  S
Zr1797     O1823   2.410       .  S
Zr1797     O1801   2.381       .  S
Zr1797     O1804   2.396       .  S
Zr1798     O1824   2.437       .  S
Zr1798     O1825   2.434       .  S
Zr1798     O1800   2.436       .  S
Zr1798     O1801   2.382       .  S
Zr1798     O1802   2.379       .  S
O1799      H1836   0.990       .  S
O1800      H1831   0.990       .  S
O1800      H1845   0.990       .  S
O1802      H1828   0.964       .  S
O1803     Zr1813   2.380       .  S
O1804     Zr1813   2.378       .  S
O1804      H1829   0.966       .  S
C1805      C2187   1.478       .  S
C1806      C2317   1.466       .  S
C1807      C2617   1.476       .  S
O1808      H1844   0.990       .  S
O1809      C1811   1.280       .  A
O1810      C1811   1.288       .  A
C1811      C2174   1.470       .  S
O1812     Zr1813   2.439       .  S
O1812      H1841   0.990       .  S
Zr1813     O1816   2.438       .  S
Zr1813     O1817   2.439       .  S
Zr1813     O1818   2.408   1_565  S
O1814      C1819   1.285       .  A
O1815      H1832   0.990       .  S
O1815      H1847   0.990       .  S
O1816      H1833   0.990       .  S
O1817      H1837   0.990   1_565  S
O1817      H1846   0.990       .  S
O1818      C1819   1.279       .  A
C1819      C2197   1.479       .  S
O1820      H1839   0.970       .  S
O1820      H1843   1.011   1_565  S
O1821      H1835   0.990       .  S
O1821      H1842   0.990       .  S
O1822      C1826   1.291       .  A
O1823      C1826   1.282       .  A
O1824      H1834   0.990       .  S
O1825      H1838   0.990       .  S
C1826      C2267   1.494       .  S
Zr1849     O1850   2.442       .  S
Zr1849     O1851   2.457       .  S
Zr1849     O1852   2.458       .  S
Zr1849     O1855   2.453       .  S
Zr1849     O1857   2.383       .  S
Zr1849     O1858   2.390       .  S
Zr1849     O1859   2.415       .  S
Zr1849     O1860   2.395       .  S
O1850      H1906   0.990       .  S
O1850      H1914   0.991       .  S
O1851      C1871   1.287       .  A
O1852      C1873   1.287       .  A
O1853     Zr1863   2.411       .  S
O1853      C1872   1.281       .  A
O1854     Zr1862   2.420       .  S
O1854      C1873   1.282       .  A
O1855      C1872   1.288       .  A
O1856     Zr1864   2.397       .  S
O1856      C1871   1.276       .  A
O1857     Zr1862   2.395       .  S
O1857     Zr1864   2.386       .  S
O1858     Zr1863   2.391       .  S
O1858     Zr1864   2.382       .  S
O1858      H1893   0.965       .  S
O1859     Zr1862   2.395       .  S
O1859     Zr1879   2.386   1_545  S
O1859      H1896   0.964       .  S
O1860     Zr1863   2.377       .  S
O1860     Zr1879   2.380   1_545  S
Zr1861     O1886   2.436       .  S
Zr1861     O1880   2.454       .  S
Zr1861     O1888   2.475       .  S
Zr1861     O1876   2.449       .  S
Zr1861     O1867   2.405   1_565  S
Zr1861     O1868   2.410   1_565  S
Zr1861     O1869   2.385       .  S
Zr1861     O1870   2.380       .  S
Zr1862     O1881   2.436   1_545  S
Zr1862     O1874   2.436       .  S
Zr1862     O1875   2.417       .  S
Zr1862     O1868   2.397       .  S
Zr1862     O1869   2.397   1_545  S
Zr1863     O1865   2.436       .  S
Zr1863     O1887   2.436       .  S
Zr1863     O1889   2.408       .  S
Zr1863     O1867   2.390       .  S
Zr1863     O1870   2.392   1_545  S
Zr1864     O1890   2.436       .  S
Zr1864     O1891   2.435       .  S
Zr1864     O1866   2.438       .  S
Zr1864     O1867   2.394       .  S
Zr1864     O1868   2.372       .  S
O1865      H1902   0.990       .  S
O1866      H1897   0.990       .  S
O1866      H1911   0.990       .  S
O1868      H1894   0.964       .  S
O1869     Zr1879   2.378       .  S
O1870     Zr1879   2.380       .  S
O1870      H1895   0.965       .  S
C1871      C2157   1.474       .  S
C1872      C2487   1.483       .  S
C1873      C2574   1.471       .  S
O1874      H1910   0.990       .  S
O1875      C1877   1.282   1_545  A
O1876      C1877   1.287       .  A
C1877      C2177   1.466       .  S
O1878     Zr1879   2.438       .  S
O1878      H1907   0.990       .  S
Zr1879     O1882   2.439       .  S
Zr1879     O1883   2.438       .  S
Zr1879     O1884   2.408       .  S
O1880      C1885   1.287       .  A
O1881      H1898   0.990   1_565  S
O1881      H1913   0.990       .  S
O1882      H1899   0.990       .  S
O1883      H1903   0.990       .  S
O1883      H1912   0.990       .  S
O1884      C1885   1.279       .  A
C1885      C2147   1.489       .  S
O1886      H1905   0.990       .  S
O1886      H1909   0.990       .  S
O1887      H1901   0.990       .  S
O1887      H1908   0.990       .  S
O1888      C1892   1.291       .  A
O1889      C1892   1.281   1_545  A
O1890      H1900   0.990       .  S
O1891      H1904   0.990       .  S
C1892      C2164   1.498       .  S
Zr1915     O1916   2.440       .  S
Zr1915     O1917   2.461       .  S
Zr1915     O1918   2.474       .  S
Zr1915     O1921   2.469       .  S
Zr1915     O1923   2.385       .  S
Zr1915     O1924   2.398       .  S
Zr1915     O1925   2.418       .  S
Zr1915     O1926   2.400       .  S
O1916      H1972   0.990       .  S
O1916      H1980   0.990       .  S
O1917      C1937   1.287       .  A
O1918      C1939   1.290       .  A
O1919     Zr1929   2.398       .  S
O1919      C1938   1.281       .  A
O1920     Zr1928   2.429       .  S
O1920      C1939   1.283       .  A
O1921      C1938   1.291       .  A
O1922     Zr1930   2.402       .  S
O1922      C1937   1.278       .  A
O1923     Zr1928   2.391       .  S
O1923     Zr1930   2.388       .  S
O1924     Zr1929   2.396       .  S
O1924     Zr1930   2.378       .  S
O1924      H1959   0.965       .  S
O1925     Zr1928   2.394       .  S
O1925     Zr1945   2.392       .  S
O1925      H1962   0.964       .  S
O1926     Zr1929   2.386       .  S
O1926     Zr1945   2.374       .  S
Zr1927     O1952   2.442       .  S
Zr1927     O1946   2.450       .  S
Zr1927     O1954   2.471       .  S
Zr1927     O1942   2.439       .  S
Zr1927     O1933   2.399       .  S
Zr1927     O1934   2.414       .  S
Zr1927     O1935   2.387       .  S
Zr1927     O1936   2.380       .  S
Zr1928     O1947   2.436       .  S
Zr1928     O1940   2.435       .  S
Zr1928     O1941   2.416       .  S
Zr1928     O1934   2.401       .  S
Zr1928     O1935   2.395       .  S
Zr1929     O1931   2.437       .  S
Zr1929     O1953   2.438       .  S
Zr1929     O1955   2.420       .  S
Zr1929     O1933   2.383       .  S
Zr1929     O1936   2.395       .  S
Zr1930     O1956   2.436       .  S
Zr1930     O1957   2.435       .  S
Zr1930     O1932   2.436       .  S
Zr1930     O1933   2.385       .  S
Zr1930     O1934   2.383       .  S
O1931      H1968   0.990       .  S
O1932      H1963   0.990       .  S
O1932      H1977   0.990       .  S
O1934      H1960   0.965       .  S
O1935     Zr1945   2.378       .  S
O1936     Zr1945   2.385       .  S
O1936      H1961   0.967       .  S
C1937      C2144   1.490       .  S
C1938      C2434   1.487       .  S
C1939      C2557   1.494       .  S
O1940      H1976   0.990       .  S
O1941      C1943   1.282       .  A
O1942      C1943   1.286       .  A
C1943      C2207   1.468       .  S
O1944     Zr1945   2.439       .  S
O1944      H1973   0.990       .  S
Zr1945     O1948   2.437       .  S
Zr1945     O1949   2.439       .  S
Zr1945     O1950   2.401       .  S
O1946      C1951   1.286       .  A
O1947      H1964   0.990       .  S
O1947      H1979   0.990       .  S
O1948      H1965   0.990       .  S
O1949      H1969   0.990       .  S
O1949      H1978   0.989       .  S
O1950      C1951   1.278       .  A
C1951      C2154   1.472       .  S
O1952      H1971   0.990       .  S
O1952      H1975   0.990       .  S
O1953      H1967   0.990       .  S
O1953      H1974   0.990       .  S
O1954      C1958   1.290       .  A
O1955      C1958   1.281       .  A
O1956      H1966   0.990       .  S
O1957      H1970   0.990       .  S
C1958      C2134   1.482       .  S
Zr1981     O1982   2.441       .  S
Zr1981     O1983   2.461       .  S
Zr1981     O1984   2.469       .  S
Zr1981     O1987   2.456       .  S
Zr1981     O1989   2.383       .  S
Zr1981     O1990   2.398       .  S
Zr1981     O1991   2.418       .  S
Zr1981     O1992   2.404       .  S
O1982      H2038   0.990       .  S
O1982      H2046   0.990       .  S
O1983      C2003   1.288       .  A
O1984      C2005   1.289       .  A
O1985     Zr1995   2.411       .  S
O1985      C2004   1.280       .  A
O1986     Zr1994   2.441       .  S
O1986      C2005   1.287       .  A
O1987      C2004   1.288       .  A
O1988     Zr1996   2.390       .  S
O1988      C2003   1.275       .  A
O1989     Zr1994   2.402       .  S
O1989     Zr1996   2.393       .  S
O1990     Zr1995   2.397       .  S
O1990     Zr1996   2.378       .  S
O1990      H2025   0.966       .  S
O1991     Zr1994   2.396       .  S
O1991     Zr2011   2.389       .  S
O1991      H2028   0.964       .  S
O1992     Zr1995   2.381       .  S
O1992     Zr2011   2.378       .  S
Zr1993     O2018   2.440       .  S
Zr1993     O2012   2.455       .  S
Zr1993     O2020   2.457       .  S
Zr1993     O2008   2.447       .  S
Zr1993     O1999   2.404       .  S
Zr1993     O2000   2.414       .  S
Zr1993     O2001   2.384       .  S
Zr1993     O2002   2.385       .  S
Zr1994     O2013   2.435       .  S
Zr1994     O2006   2.435       .  S
Zr1994     O2007   2.425       .  S
Zr1994     O2000   2.406       .  S
Zr1994     O2001   2.397       .  S
Zr1995     O1997   2.437       .  S
Zr1995     O2019   2.438       .  S
Zr1995     O2021   2.423       .  S
Zr1995     O1999   2.388       .  S
Zr1995     O2002   2.398       .  S
Zr1996     O2022   2.436       .  S
Zr1996     O2023   2.436       .  S
Zr1996     O1998   2.437       .  S
Zr1996     O1999   2.387       .  S
Zr1996     O2000   2.373       .  S
O1997      H2034   0.991       .  S
O1998      H2029   0.990       .  S
O1998      H2043   0.990       .  S
O2000      H2026   0.963       .  S
O2001     Zr2011   2.377       .  S
O2002     Zr2011   2.387       .  S
O2002      H2027   0.967       .  S
C2003      C2127   1.477       .  S
C2004      C2414   1.466       .  S
C2005      C2527   1.494       .  S
O2006      H2042   0.990       .  S
O2007      C2009   1.284       .  A
O2008      C2009   1.287       .  A
C2009      C2217   1.471       .  S
O2010     Zr2011   2.441       .  S
O2010      H2039   0.989       .  S
Zr2011     O2014   2.437       .  S
Zr2011     O2015   2.439       .  S
Zr2011     O2016   2.405       .  S
O2012      C2017   1.288       .  A
O2013      H2030   0.990       .  S
O2013      H2045   0.990       .  S
O2014      H2031   0.989       .  S
O2015      H2035   0.990       .  S
O2015      H2044   0.990       .  S
O2016      C2017   1.276       .  A
C2017      C2114   1.488       .  S
O2018      H2037   0.990       .  S
O2018      H2041   0.990       .  S
O2019      H2033   0.990       .  S
O2019      H2040   0.990       .  S
O2020      C2024   1.288       .  A
O2021      C2024   1.282       .  A
O2022      H2032   0.990       .  S
O2023      H2036   0.989       .  S
C2024      C2137   1.481       .  S
Zr2047     O2048   2.443       .  S
Zr2047     O2049   2.458       .  S
Zr2047     O2050   2.470       .  S
Zr2047     O2053   2.447       .  S
Zr2047     O2055   2.381       .  S
Zr2047     O2056   2.396       .  S
Zr2047     O2057   2.414       .  S
Zr2047     O2058   2.409       .  S
O2048      H2104   0.991       .  S
O2048      H2112   0.990       .  S
O2049      C2069   1.288       .  A
O2050      C2071   1.290       .  A
O2051     Zr2061   2.429       .  S
O2051      C2070   1.284       .  A
O2052     Zr2060   2.426       .  S
O2052      C2071   1.282       .  A
O2053      C2070   1.286       .  A
O2054     Zr2062   2.410       .  S
O2054      C2069   1.278       .  A
O2055     Zr2060   2.392       .  S
O2055     Zr2062   2.385       .  S
O2056     Zr2061   2.402       .  S
O2056     Zr2062   2.382       .  S
O2056      H2091   0.966       .  S
O2057     Zr2060   2.396       .  S
O2057     Zr2077   2.386       .  S
O2057      H2094   0.964       .  S
O2058     Zr2061   2.388       .  S
O2058     Zr2077   2.382       .  S
Zr2059     O2084   2.441       .  S
Zr2059     O2078   2.449   1_565  S
Zr2059     O2086   2.452       .  S
Zr2059     O2074   2.457       .  S
Zr2059     O2065   2.402       .  S
Zr2059     O2066   2.411       .  S
Zr2059     O2067   2.379       .  S
Zr2059     O2068   2.385       .  S
Zr2060     O2079   2.437       .  S
Zr2060     O2072   2.435       .  S
Zr2060     O2073   2.415       .  S
Zr2060     O2066   2.398       .  S
Zr2060     O2067   2.397       .  S
Zr2061     O2063   2.436       .  S
Zr2061     O2085   2.436       .  S
Zr2061     O2087   2.438       .  S
Zr2061     O2065   2.387       .  S
Zr2061     O2068   2.395       .  S
Zr2062     O2088   2.434       .  S
Zr2062     O2089   2.436       .  S
Zr2062     O2064   2.438       .  S
Zr2062     O2065   2.387       .  S
Zr2062     O2066   2.389       .  S
O2063      H2100   0.990       .  S
O2064      H2095   0.991       .  S
O2064      H2109   0.990       .  S
O2066      H2092   0.965       .  S
O2067     Zr2077   2.381       .  S
O2068     Zr2077   2.382       .  S
O2068      H2093   0.967       .  S
C2069      C2117   1.490       .  S
C2070      C2377   1.472       .  S
C2071      C2514   1.497       .  S
O2072      H2108   0.991       .  S
O2073      C2075   1.281       .  A
O2074      C2075   1.288       .  A
C2075      C2257   1.477       .  S
O2076     Zr2077   2.439       .  S
O2076      H2105   0.990       .  S
Zr2077     O2080   2.435       .  S
Zr2077     O2081   2.441       .  S
Zr2077     O2082   2.400   1_565  S
O2078      C2083   1.285       .  A
O2079      H2096   0.990       .  S
O2079      H2111   0.990       .  S
O2080      H2097   0.990       .  S
O2081      H2101   0.990   1_565  S
O2081      H2110   0.989   1_565  S
O2082      C2083   1.277       .  A
C2083      C2124   1.478       .  S
O2084      H2103   0.990       .  S
O2084      H2107   0.990   1_565  S
O2085      H2099   0.990       .  S
O2085      H2106   0.990       .  S
O2086      C2090   1.288       .  A
O2087      C2090   1.286       .  A
O2088      H2098   0.990       .  S
O2089      H2102   0.990       .  S
C2090      C2167   1.494       .  S
C2113      C2114   1.402       .  A
C2113      C2118   1.399       .  A
C2113      H2120   1.083       .  S
C2114      C2115   1.417       .  A
C2115      C2116   1.402       .  A
C2115     Br2122   1.921       .  S
C2116      C2117   1.404       .  A
C2116      H2121   1.083       .  S
C2117      C2118   1.417       .  A
C2118     Br2119   1.920       .  S
C2123      C2124   1.407       .  A
C2123      C2128   1.399       .  A
C2123      H2130   1.084       .  S
C2124      C2125   1.409       .  A
C2125      C2126   1.399       .  A
C2125     Br2132   1.921       .  S
C2126      C2127   1.407       .  A
C2126      H2131   1.084       .  S
C2127      C2128   1.407       .  A
C2128     Br2129   1.920       .  S
C2133      C2134   1.407       .  A
C2133      C2138   1.404       .  A
C2133      H2140   1.084       .  S
C2134      C2135   1.408       .  A
C2135      C2136   1.403       .  A
C2135     Br2142   1.918       .  S
C2136      C2137   1.406       .  A
C2136      H2141   1.084       .  S
C2137      C2138   1.409       .  A
C2138     Br2139   1.920       .  S
C2143      C2144   1.410       .  A
C2143      C2148   1.400       .  A
C2143      H2150   1.083       .  S
C2144      C2145   1.411       .  A
C2145      C2146   1.401       .  A
C2145     Br2152   1.920       .  S
C2146      C2147   1.410       .  A
C2146      H2151   1.083       .  S
C2147      C2148   1.411       .  A
C2148     Br2149   1.922       .  S
C2153      C2154   1.401       .  A
C2153      C2158   1.400       .  A
C2153      H2160   1.082       .  S
C2154      C2155   1.410       .  A
C2155      C2156   1.397       .  A
C2155     Br2162   1.920       .  S
C2156      C2157   1.401       .  A
C2156      H2161   1.084       .  S
C2157      C2158   1.413       .  A
C2158     Br2159   1.920       .  S
C2163      C2164   1.409       .  A
C2163      C2168   1.399       .  A
C2163      H2170   1.083       .  S
C2164      C2165   1.415       .  A
C2165      C2166   1.406       .  A
C2165     Br2172   1.915       .  S
C2166      C2167   1.408       .  A
C2166      H2171   1.083       .  S
C2167      C2168   1.413       .  A
C2168     Br2169   1.920       .  S
C2173      C2174   1.400       .  A
C2173      C2178   1.398   1_665  A
C2173      H2180   1.083   1_565  S
C2174      C2175   1.413       .  A
C2175      C2176   1.398   1_655  A
C2175     Br2182   1.919       .  S
C2176      C2177   1.398       .  A
C2176      H2181   1.084       .  S
C2177      C2178   1.411   1_565  A
C2178     Br2179   1.920       .  S
C2183      C2184   1.408       .  A
C2183      C2188   1.400       .  A
C2183      H2190   1.084       .  S
C2184      C2185   1.410       .  A
C2185      C2186   1.398       .  A
C2185     Br2192   1.923       .  S
C2186      C2187   1.406       .  A
C2186      H2191   1.084       .  S
C2187      C2188   1.408       .  A
C2188     Br2189   1.920       .  S
C2193      C2194   1.408       .  A
C2193      C2198   1.401       .  A
C2193      H2200   1.084       .  S
C2194      C2195   1.410       .  A
C2195      C2196   1.399       .  A
C2195     Br2202   1.921       .  S
C2196      C2197   1.405       .  A
C2196      H2201   1.084       .  S
C2197      C2198   1.410       .  A
C2198     Br2199   1.920       .  S
C2203      C2204   1.402       .  A
C2203      C2208   1.397   1_655  A
C2203      H2210   1.084       .  S
C2204      C2205   1.403       .  A
C2205      C2206   1.396   1_655  A
C2205     Br2212   1.920       .  S
C2206      C2207   1.406       .  A
C2206      H2211   1.084       .  S
C2207      C2208   1.408       .  A
C2208     Br2209   1.919       .  S
C2213      C2214   1.397       .  A
C2213      C2218   1.397   1_655  A
C2213      H2220   1.084       .  S
C2214      C2215   1.409       .  A
C2215      C2216   1.399   1_655  A
C2215     Br2222   1.919       .  S
C2216      C2217   1.402       .  A
C2216      H2221   1.084       .  S
C2217      C2218   1.414       .  A
C2218     Br2219   1.920       .  S
C2223      C2224   1.408       .  A
C2223      C2228   1.408       .  A
C2223      H2230   1.083       .  S
C2224      C2225   1.414       .  A
C2225      C2226   1.401       .  A
C2225     Br2232   1.921       .  S
C2226      C2227   1.409       .  A
C2226      H2231   1.083       .  S
C2227      C2228   1.418       .  A
C2228     Br2229   1.917       .  S
C2233      C2234   1.401       .  A
C2233      C2238   1.397       .  A
C2233      H2240   1.084       .  S
C2234      C2235   1.409       .  A
C2235      C2236   1.398       .  A
C2235     Br2242   1.920       .  S
C2236      C2237   1.404       .  A
C2236      H2241   1.084       .  S
C2237      C2238   1.413       .  A
C2238     Br2239   1.919       .  S
C2243      C2244   1.403       .  A
C2243      C2248   1.396       .  A
C2243      H2250   1.084       .  S
C2244      C2245   1.418       .  A
C2245      C2246   1.402       .  A
C2245     Br2252   1.919       .  S
C2246      C2247   1.404       .  A
C2246      H2251   1.084       .  S
C2247      C2248   1.419       .  A
C2248     Br2249   1.921       .  S
C2253      C2254   1.403   1_545  A
C2253      C2258   1.399   1_645  A
C2253      H2260   1.084       .  S
C2254      C2255   1.404       .  A
C2255      C2256   1.400   1_655  A
C2255     Br2262   1.918       .  S
C2256      C2257   1.408       .  A
C2256      H2261   1.084       .  S
C2257      C2258   1.409       .  A
C2258     Br2259   1.920   1_565  S
C2263      C2264   1.410       .  A
C2263      C2268   1.407       .  A
C2263      H2270   1.083       .  S
C2264      C2265   1.412       .  A
C2265      C2266   1.397       .  A
C2265     Br2272   1.920       .  S
C2266      C2267   1.408       .  A
C2266      H2271   1.083       .  S
C2267      C2268   1.414       .  A
C2268     Br2269   1.919       .  S
C2273      C2274   1.405       .  A
C2273      C2278   1.400       .  A
C2273      H2280   1.084       .  S
C2274      C2275   1.402       .  A
C2275      C2276   1.396       .  A
C2275     Br2282   1.918       .  S
C2276      C2277   1.406       .  A
C2276      H2281   1.084       .  S
C2277      C2278   1.407       .  A
C2278     Br2279   1.920       .  S
C2283      C2284   1.401       .  A
C2283      C2288   1.398       .  A
C2283      H2290   1.084       .  S
C2284      C2285   1.414       .  A
C2285      C2286   1.403       .  A
C2285     Br2292   1.920       .  S
C2286      C2287   1.403       .  A
C2286      H2291   1.084       .  S
C2287      C2288   1.410       .  A
C2288     Br2289   1.920       .  S
C2293      C2294   1.409       .  A
C2293      C2298   1.400       .  A
C2293      H2300   1.084       .  S
C2294      C2295   1.410       .  A
C2295      C2296   1.400       .  A
C2295     Br2302   1.920       .  S
C2296      C2297   1.408       .  A
C2296      H2301   1.084       .  S
C2297      C2298   1.409       .  A
C2298     Br2299   1.922       .  S
C2303      C2304   1.412       .  A
C2303      C2308   1.395       .  A
C2303      H2310   1.083       .  S
C2304      C2305   1.419       .  A
C2305      C2306   1.404       .  A
C2305     Br2312   1.915       .  S
C2306      C2307   1.403       .  A
C2306      H2311   1.084       .  S
C2307      C2308   1.406       .  A
C2308     Br2309   1.922       .  S
C2313      C2314   1.409       .  A
C2313      C2318   1.399       .  A
C2313      H2320   1.084       .  S
C2314      C2315   1.409       .  A
C2315      C2316   1.399       .  A
C2315     Br2322   1.919       .  S
C2316      C2317   1.403       .  A
C2316      H2321   1.084       .  S
C2317      C2318   1.403       .  A
C2318     Br2319   1.919       .  S
C2323      C2324   1.405       .  A
C2323      C2328   1.396       .  A
C2323      H2330   1.083       .  S
C2324      C2325   1.417       .  A
C2325      C2326   1.410       .  A
C2325     Br2332   1.919       .  S
C2326      C2327   1.409       .  A
C2326      H2331   1.083       .  S
C2327      C2328   1.414       .  A
C2328     Br2329   1.920       .  S
C2333      C2334   1.401       .  A
C2333      C2338   1.399       .  A
C2333      H2340   1.084       .  S
C2334      C2335   1.420       .  A
C2335      C2336   1.398       .  A
C2335     Br2342   1.924       .  S
C2336      C2337   1.401       .  A
C2336      H2341   1.084       .  S
C2337      C2338   1.421       .  A
C2338     Br2339   1.924       .  S
C2343      C2344   1.401       .  A
C2343      C2348   1.399       .  A
C2343      H2350   1.084       .  S
C2344      C2345   1.412       .  A
C2345      C2346   1.398       .  A
C2345     Br2352   1.920       .  S
C2346      C2347   1.402       .  A
C2346      H2351   1.084       .  S
C2347      C2348   1.413       .  A
C2348     Br2349   1.920   1_545  S
C2353      C2354   1.406       .  A
C2353      C2358   1.405       .  A
C2353      H2360   1.084       .  S
C2354      C2355   1.408       .  A
C2355      C2356   1.390       .  A
C2355     Br2362   1.923       .  S
C2356      C2357   1.408       .  A
C2356      H2361   1.083       .  S
C2357      C2358   1.415       .  A
C2358     Br2359   1.918       .  S
C2363      C2364   1.409       .  A
C2363      C2368   1.405       .  A
C2363      H2370   1.083       .  S
C2364      C2365   1.421       .  A
C2365      C2366   1.397       .  A
C2365     Br2372   1.924       .  S
C2366      C2367   1.402       .  A
C2366      H2371   1.084       .  S
C2367      C2368   1.412       .  A
C2368     Br2369   1.916       .  S
C2373      C2374   1.401       .  A
C2373      C2378   1.399       .  A
C2373      H2380   1.084       .  S
C2374      C2375   1.412       .  A
C2375      C2376   1.399       .  A
C2375     Br2382   1.920       .  S
C2376      C2377   1.400       .  A
C2376      H2381   1.084       .  S
C2377      C2378   1.410       .  A
C2378     Br2379   1.917       .  S
C2383      C2384   1.398       .  A
C2383      C2388   1.399       .  A
C2383      H2390   1.084       .  S
C2384      C2385   1.405       .  A
C2385      C2386   1.396       .  A
C2385     Br2392   1.920       .  S
C2386      C2387   1.409       .  A
C2386      H2391   1.083       .  S
C2387      C2388   1.424       .  A
C2388     Br2389   1.925       .  S
C2393      C2394   1.411       .  A
C2393      C2398   1.403       .  A
C2393      H2400   1.084       .  S
C2394      C2395   1.409       .  A
C2395      C2396   1.400       .  A
C2395     Br2402   1.919       .  S
C2396      C2397   1.407       .  A
C2396      H2401   1.084       .  S
C2397      C2398   1.408       .  A
C2398     Br2399   1.920       .  S
C2403      C2404   1.402       .  A
C2403      C2408   1.397       .  A
C2403      H2410   1.084       .  S
C2404      C2405   1.415       .  A
C2405      C2406   1.398       .  A
C2405     Br2412   1.921       .  S
C2406      C2407   1.403   1_545  A
C2406      H2411   1.084   1_545  S
C2407      C2408   1.416   1_565  A
C2408     Br2409   1.920   1_545  S
C2413      C2414   1.399       .  A
C2413      C2418   1.398       .  A
C2413      H2420   1.084       .  S
C2414      C2415   1.412       .  A
C2415      C2416   1.393       .  A
C2415     Br2422   1.916       .  S
C2416      C2417   1.396       .  A
C2416      H2421   1.084       .  S
C2417      C2418   1.412       .  A
C2418     Br2419   1.918       .  S
C2423      C2424   1.397       .  A
C2423      C2428   1.395       .  A
C2423      H2430   1.084       .  S
C2424      C2425   1.407       .  A
C2425      C2426   1.396       .  A
C2425     Br2432   1.921       .  S
C2426      C2427   1.402       .  A
C2426      H2431   1.084       .  S
C2427      C2428   1.412       .  A
C2428     Br2429   1.919       .  S
C2433      C2434   1.408       .  A
C2433      C2438   1.391       .  A
C2433      H2440   1.083       .  S
C2434      C2435   1.415       .  A
C2435      C2436   1.403       .  A
C2435     Br2442   1.919       .  S
C2436      C2437   1.407       .  A
C2436      H2441   1.083       .  S
C2437      C2438   1.409       .  A
C2438     Br2439   1.924       .  S
C2443      C2444   1.409       .  A
C2443      C2448   1.401       .  A
C2443      H2450   1.084       .  S
C2444      C2445   1.409       .  A
C2445      C2446   1.403       .  A
C2445     Br2452   1.918       .  S
C2446      C2447   1.405       .  A
C2446      H2451   1.084       .  S
C2447      C2448   1.403       .  A
C2448     Br2449   1.918       .  S
C2453      C2454   1.413       .  A
C2453      C2458   1.411       .  A
C2453      H2460   1.083       .  S
C2454      C2455   1.422       .  A
C2455      C2456   1.394       .  A
C2455     Br2462   1.924       .  S
C2456      C2457   1.399       .  A
C2456      H2461   1.084       .  S
C2457      C2458   1.411       .  A
C2458     Br2459   1.919       .  S
C2463      C2464   1.401       .  A
C2463      C2468   1.397       .  A
C2463      H2470   1.084       .  S
C2464      C2465   1.420       .  A
C2465      C2466   1.402       .  A
C2465     Br2472   1.922       .  S
C2466      C2467   1.404       .  A
C2466      H2471   1.084       .  S
C2467      C2468   1.416       .  A
C2468     Br2469   1.920       .  S
C2473      C2474   1.401       .  A
C2473      C2478   1.400       .  A
C2473      H2480   1.084       .  S
C2474      C2475   1.411       .  A
C2475      C2476   1.397       .  A
C2475     Br2482   1.919       .  S
C2476      C2477   1.402       .  A
C2476      H2481   1.084       .  S
C2477      C2478   1.413       .  A
C2478     Br2479   1.919       .  S
C2483      C2484   1.406       .  A
C2483      C2488   1.393       .  A
C2483      H2490   1.083       .  S
C2484      C2485   1.416       .  A
C2485      C2486   1.403       .  A
C2485     Br2492   1.920       .  S
C2486      C2487   1.406       .  A
C2486      H2491   1.083       .  S
C2487      C2488   1.413       .  A
C2488     Br2489   1.924       .  S
C2493      C2494   1.399       .  A
C2493      C2498   1.398       .  A
C2493      H2500   1.084       .  S
C2494      C2495   1.410       .  A
C2495      C2496   1.400       .  A
C2495     Br2502   1.918       .  S
C2496      C2497   1.402       .  A
C2496      H2501   1.084       .  S
C2497      C2498   1.414       .  A
C2498     Br2499   1.920       .  S
C2503      C2504   1.403       .  A
C2503      C2508   1.405       .  A
C2503      H2510   1.084       .  S
C2504      C2505   1.404       .  A
C2505      C2506   1.399       .  A
C2505     Br2512   1.919       .  S
C2506      C2507   1.410       .  A
C2506      H2511   1.083       .  S
C2507      C2508   1.416       .  A
C2508     Br2509   1.919       .  S
C2513      C2514   1.409       .  A
C2513      C2518   1.406       .  A
C2513      H2520   1.083       .  S
C2514      C2515   1.417       .  A
C2515      C2516   1.399       .  A
C2515     Br2522   1.923       .  S
C2516      C2517   1.406       .  A
C2516      H2521   1.084       .  S
C2517      C2518   1.416       .  A
C2518     Br2519   1.920       .  S
C2523      C2524   1.405       .  A
C2523      C2528   1.404       .  A
C2523      H2530   1.084       .  S
C2524      C2525   1.417       .  A
C2525      C2526   1.402       .  A
C2525     Br2532   1.923       .  S
C2526      C2527   1.405       .  A
C2526      H2531   1.084       .  S
C2527      C2528   1.417       .  A
C2528     Br2529   1.919       .  S
C2533      C2534   1.400       .  A
C2533      C2538   1.399       .  A
C2533      H2540   1.084       .  S
C2534      C2535   1.412       .  A
C2535      C2536   1.397       .  A
C2535     Br2542   1.918       .  S
C2536      C2537   1.402       .  A
C2536      H2541   1.084       .  S
C2537      C2538   1.418       .  A
C2538     Br2539   1.921       .  S
C2543      C2544   1.407       .  A
C2543      C2548   1.397       .  A
C2543      H2550   1.084       .  S
C2544      C2545   1.410       .  A
C2545      C2546   1.403       .  A
C2545     Br2552   1.920       .  S
C2546      C2547   1.408       .  A
C2546      H2551   1.084       .  S
C2547      C2548   1.409       .  A
C2548     Br2549   1.922       .  S
C2553      C2554   1.408       .  A
C2553      C2558   1.402   1_556  A
C2553      H2560   1.084       .  S
C2554      C2555   1.415       .  A
C2555      C2556   1.406   1_556  A
C2555     Br2562   1.919       .  S
C2556      C2557   1.407       .  A
C2556      H2561   1.083       .  S
C2557      C2558   1.414       .  A
C2558     Br2559   1.921       .  S
C2563      C2564   1.402       .  A
C2563      C2568   1.398       .  A
C2563      H2570   1.084       .  S
C2564      C2565   1.411       .  A
C2565      C2566   1.400       .  A
C2565     Br2572   1.918       .  S
C2566      C2567   1.408       .  A
C2566      H2571   1.083       .  S
C2567      C2568   1.421       .  A
C2568     Br2569   1.924       .  S
C2573      C2574   1.402       .  A
C2573      C2578   1.399   1_554  A
C2573      H2580   1.084       .  S
C2574      C2575   1.410       .  A
C2575      C2576   1.399   1_554  A
C2575     Br2582   1.921       .  S
C2576      C2577   1.403       .  A
C2576      H2581   1.084       .  S
C2577      C2578   1.409       .  A
C2578     Br2579   1.919       .  S
C2583      C2584   1.406       .  A
C2583      C2588   1.398       .  A
C2583      H2590   1.084       .  S
C2584      C2585   1.406       .  A
C2585      C2586   1.399       .  A
C2585     Br2592   1.918       .  S
C2586      C2587   1.405       .  A
C2586      H2591   1.084       .  S
C2587      C2588   1.407       .  A
C2588     Br2589   1.920       .  S
C2593      C2594   1.404       .  A
C2593      C2598   1.402       .  A
C2593      H2600   1.084       .  S
C2594      C2595   1.415       .  A
C2595      C2596   1.399       .  A
C2595     Br2602   1.921       .  S
C2596      C2597   1.402       .  A
C2596      H2601   1.084       .  S
C2597      C2598   1.414       .  A
C2598     Br2599   1.918       .  S
C2603      C2604   1.408       .  A
C2603      C2608   1.402       .  A
C2603      H2610   1.083       .  S
C2604      C2605   1.417       .  A
C2605      C2606   1.397       .  A
C2605     Br2612   1.923       .  S
C2606      C2607   1.404       .  A
C2606      H2611   1.084       .  S
C2607      C2608   1.412       .  A
C2608     Br2609   1.919       .  S
C2613      C2614   1.403       .  A
C2613      C2618   1.400   1_556  A
C2613      H2620   1.084       .  S
C2614      C2615   1.409       .  A
C2615      C2616   1.400   1_556  A
C2615     Br2622   1.919       .  S
C2616      C2617   1.403       .  A
C2616      H2621   1.084       .  S
C2617      C2618   1.413       .  A
C2618     Br2619   1.921       .  S
C2623      C2624   1.400       .  A
C2623      C2628   1.393   1_665  A
C2623      H2630   1.084   1_565  S
C2624      C2625   1.409       .  A
C2625      C2626   1.396   1_655  A
C2625     Br2632   1.918       .  S
C2626      C2627   1.401       .  A
C2626      H2631   1.083       .  S
C2627      C2628   1.408   1_565  A
C2628     Br2629   1.918       .  S
C2633      C2634   1.405       .  A
C2633      C2638   1.403   1_554  A
C2633      H2640   1.083       .  S
C2634      C2635   1.413       .  A
C2635      C2636   1.399   1_554  A
C2635     Br2642   1.921       .  S
C2636      C2637   1.403       .  A
C2636      H2641   1.084       .  S
C2637      C2638   1.411       .  A
C2638     Br2639   1.918       .  S
C2643      C2644   1.404       .  A
C2643      C2648   1.400       .  A
C2643      H2650   1.084       .  S
C2644      C2645   1.420       .  A
C2645      C2646   1.398       .  A
C2645     Br2652   1.923       .  S
C2646      C2647   1.401       .  A
C2646      H2651   1.084       .  S
C2647      C2648   1.417       .  A
C2648     Br2649   1.921       .  S
C2653      C2654   1.406       .  A
C2653      C2658   1.395       .  A
C2653      H2660   1.084       .  S
C2654      C2655   1.410       .  A
C2655      C2656   1.399       .  A
C2655     Br2662   1.921       .  S
C2656      C2657   1.408       .  A
C2656      H2661   1.084       .  S
C2657      C2658   1.410       .  A
C2658     Br2659   1.923       .  S
C2663      C2664   1.404       .  A
C2663      C2668   1.398   1_655  A
C2663      H2670   1.084       .  S
C2664      C2665   1.413   1_655  A
C2665      C2666   1.395       .  A
C2665     Br2672   1.919   1_455  S
C2666      C2667   1.398       .  A
C2666      H2671   1.084       .  S
C2667      C2668   1.407       .  A
C2668     Br2669   1.919       .  S
C2673      C2674   1.410       .  A
C2673      C2678   1.402       .  A
C2673      H2680   1.084       .  S
C2674      C2675   1.417       .  A
C2675      C2676   1.407       .  A
C2675     Br2682   1.914       .  S
C2676      C2677   1.407       .  A
C2676      H2681   1.083       .  S
C2677      C2678   1.415       .  A
C2678     Br2679   1.922       .  S
C2683      C2684   1.401       .  A
C2683      C2688   1.397   1_655  A
C2683      H2690   1.083       .  S
C2684      C2685   1.410       .  A
C2685      C2686   1.401   1_655  A
C2685     Br2692   1.920       .  S
C2686      C2687   1.403       .  A
C2686      H2691   1.084       .  S
C2687      C2688   1.409       .  A
C2688     Br2689   1.918       .  S
C2693      C2694   1.403       .  A
C2693      C2698   1.404       .  A
C2693      H2700   1.084       .  S
C2694      C2695   1.401       .  A
C2695      C2696   1.399       .  A
C2695     Br2702   1.918       .  S
C2696      C2697   1.411       .  A
C2696      H2701   1.083       .  S
C2697      C2698   1.415       .  A
C2698     Br2699   1.920       .  S
C2703      C2704   1.412       .  A
C2703      C2708   1.417       .  A
C2703      H2710   1.083       .  S
C2704      C2705   1.411       .  A
C2705      C2706   1.391       .  A
C2705     Br2712   1.921       .  S
C2706      C2707   1.401       .  A
C2706      H2711   1.084       .  S
C2707      C2708   1.410       .  A
C2708     Br2709   1.916       .  S
C2713      C2714   1.404       .  A
C2713      C2718   1.404       .  A
C2713      H2720   1.083       .  S
C2714      C2715   1.412       .  A
C2715      C2716   1.399       .  A
C2715     Br2722   1.919       .  S
C2716      C2717   1.401       .  A
C2716      H2721   1.084       .  S
C2717      C2718   1.412       .  A
C2718     Br2719   1.919       .  S
C2723      C2724   1.409       .  A
C2723      C2728   1.401       .  A
C2723      H2730   1.084       .  S
C2724      C2725   1.410       .  A
C2725      C2726   1.397       .  A
C2725     Br2732   1.921       .  S
C2726      C2727   1.406       .  A
C2726      H2731   1.084       .  S
C2727      C2728   1.408       .  A
C2728     Br2729   1.921       .  S
C2733      C2734   1.403       .  A
C2733      C2738   1.399   1_655  A
C2733      H2740   1.084       .  S
C2734      C2735   1.410   1_565  A
C2735      C2736   1.393   1_645  A
C2735     Br2742   1.919       .  S
C2736      C2737   1.398       .  A
C2736      H2741   1.084   1_565  S
C2737      C2738   1.409       .  A
C2738     Br2739   1.919       .  S
C2743      C2744   1.409       .  A
C2743      C2748   1.401       .  A
C2743      H2750   1.083       .  S
C2744      C2745   1.426   1_565  A
C2745      C2746   1.400   1_545  A
C2745     Br2752   1.924       .  S
C2746      C2747   1.399       .  A
C2746      H2751   1.084   1_565  S
C2747      C2748   1.409       .  A
C2748     Br2749   1.919       .  S
C2753      C2754   1.406       .  A
C2753      C2758   1.399       .  A
C2753      H2760   1.084       .  S
C2754      C2755   1.415       .  A
C2755      C2756   1.407       .  A
C2755     Br2762   1.920       .  S
C2756      C2757   1.409       .  A
C2756      H2761   1.083       .  S
C2757      C2758   1.411       .  A
C2758     Br2759   1.920       .  S
C2763      C2764   1.408       .  A
C2763      C2768   1.405       .  A
C2763      H2770   1.083       .  S
C2764      C2765   1.415       .  A
C2765      C2766   1.394       .  A
C2765     Br2772   1.924       .  S
C2766      C2767   1.406       .  A
C2766      H2771   1.084       .  S
C2767      C2768   1.414       .  A
C2768     Br2769   1.918       .  S
C2773      C2774   1.405       .  A
C2773      C2778   1.401       .  A
C2773      H2780   1.084       .  S
C2774      C2775   1.416       .  A
C2775      C2776   1.406       .  A
C2775     Br2782   1.921       .  S
C2776      C2777   1.407       .  A
C2776      H2781   1.083       .  S
C2777      C2778   1.417       .  A
C2778     Br2779   1.922       .  S
C2783      C2784   1.407       .  A
C2783      C2788   1.399       .  A
C2783      H2790   1.084       .  S
C2784      C2785   1.407       .  A
C2785      C2786   1.399       .  A
C2785     Br2792   1.920       .  S
C2786      C2787   1.408       .  A
C2786      H2791   1.084       .  S
C2787      C2788   1.409       .  A
C2788     Br2789   1.921       .  S
C2793      C2794   1.409       .  A
C2793      C2798   1.401       .  A
C2793      H2800   1.084       .  S
C2794      C2795   1.408       .  A
C2795      C2796   1.400       .  A
C2795     Br2802   1.921       .  S
C2796      C2797   1.410       .  A
C2796      H2801   1.084       .  S
C2797      C2798   1.410       .  A
C2798     Br2799   1.921       .  S
C2803      C2804   1.408       .  A
C2803      C2808   1.391       .  A
C2803      H2810   1.084       .  S
C2804      C2805   1.417       .  A
C2805      C2806   1.407       .  A
C2805     Br2812   1.917       .  S
C2806      C2807   1.406       .  A
C2806      H2811   1.084       .  S
C2807      C2808   1.411       .  A
C2808     Br2809   1.923       .  S
C2813      C2814   1.405       .  A
C2813      C2818   1.400   1_556  A
C2813      H2820   1.084       .  S
C2814      C2815   1.413       .  A
C2815      C2816   1.396   1_556  A
C2815     Br2822   1.921       .  S
C2816      C2817   1.403       .  A
C2816      H2821   1.084       .  S
C2817      C2818   1.412       .  A
C2818     Br2819   1.921       .  S
C2823      C2824   1.397       .  A
C2823      C2828   1.394       .  A
C2823      H2830   1.084       .  S
C2824      C2825   1.410       .  A
C2825      C2826   1.402       .  A
C2825     Br2832   1.919       .  S
C2826      C2827   1.408       .  A
C2826      H2831   1.083       .  S
C2827      C2828   1.425       .  A
C2828     Br2829   1.926       .  S
C2833      C2834   1.407       .  A
C2833      C2838   1.399       .  A
C2833      H2840   1.083       .  S
C2834      C2835   1.417       .  A
C2835      C2836   1.403       .  A
C2835     Br2842   1.917       .  S
C2836      C2837   1.405       .  A
C2836      H2841   1.083       .  S
C2837      C2838   1.416       .  A
C2838     Br2839   1.924       .  S
C2843      C2844   1.406       .  A
C2843      C2848   1.402   1_556  A
C2843      H2850   1.084       .  S
C2844      C2845   1.411       .  A
C2845      C2846   1.400   1_556  A
C2845     Br2852   1.920       .  S
C2846      C2847   1.405       .  A
C2846      H2851   1.084       .  S
C2847      C2848   1.409       .  A
C2848     Br2849   1.919       .  S
C2853      C2854   1.408       .  A
C2853      C2858   1.400       .  A
C2853      H2860   1.084       .  S
C2854      C2855   1.409       .  A
C2855      C2856   1.398       .  A
C2855     Br2862   1.922       .  S
C2856      C2857   1.409       .  A
C2856      H2861   1.084       .  S
C2857      C2858   1.411       .  A
C2858     Br2859   1.920       .  S
C2863      C2864   1.401       .  A
C2863      C2868   1.398       .  A
C2863      H2870   1.084       .  S
C2864      C2865   1.416       .  A
C2865      C2866   1.400       .  A
C2865     Br2872   1.922       .  S
C2866      C2867   1.402       .  A
C2866      H2871   1.084       .  S
C2867      C2868   1.413       .  A
C2868     Br2869   1.919       .  S
C2873      C2874   1.409       .  A
C2873      C2878   1.393       .  A
C2873      H2880   1.083       .  S
C2874      C2875   1.418       .  A
C2875      C2876   1.402       .  A
C2875     Br2882   1.918       .  S
C2876      C2877   1.403       .  A
C2876      H2881   1.084       .  S
C2877      C2878   1.407       .  A
C2878     Br2879   1.922       .  S
C2883      C2884   1.401       .  A
C2883      C2888   1.398       .  A
C2883      H2890   1.084       .  S
C2884      C2885   1.411       .  A
C2885      C2886   1.405       .  A
C2885     Br2892   1.919       .  S
C2886      C2887   1.410       .  A
C2886      H2891   1.083       .  S
C2887      C2888   1.423       .  A
C2888     Br2889   1.925       .  S
C2893      C2894   1.404       .  A
C2893      C2898   1.401       .  A
C2893      H2900   1.084       .  S
C2894      C2895   1.410       .  A
C2895      C2896   1.401       .  A
C2895     Br2902   1.919       .  S
C2896      C2897   1.405       .  A
C2896      H2901   1.084       .  S
C2897      C2898   1.413       .  A
C2898     Br2899   1.921       .  S
C2903      C2904   1.408       .  A
C2903      C2908   1.395       .  A
C2903      H2910   1.084       .  S
C2904      C2905   1.417       .  A
C2905      C2906   1.404       .  A
C2905     Br2912   1.917       .  S
C2906      C2907   1.405       .  A
C2906      H2911   1.083       .  S
C2907      C2908   1.413       .  A
C2908     Br2909   1.924       .  S
C2913      C2914   1.400       .  A
C2913      C2918   1.399       .  A
C2913      H2920   1.084       .  S
C2914      C2915   1.409       .  A
C2915      C2916   1.399       .  A
C2915     Br2922   1.919       .  S
C2916      C2917   1.404       .  A
C2916      H2921   1.084       .  S
C2917      C2918   1.413       .  A
C2918     Br2919   1.920       .  S
C2923      C2924   1.406       .  A
C2923      C2928   1.404       .  A
C2923      H2930   1.084       .  S
C2924      C2925   1.412       .  A
C2925      C2926   1.396       .  A
C2925     Br2932   1.920       .  S
C2926      C2927   1.406       .  A
C2926      H2931   1.084       .  S
C2927      C2928   1.415       .  A
C2928     Br2929   1.920       .  S
C2933      C2934   1.401       .  A
C2933      C2938   1.399       .  A
C2933      H2940   1.084       .  S
C2934      C2935   1.416       .  A
C2935      C2936   1.403       .  A
C2935     Br2942   1.920       .  S
C2936      C2937   1.405       .  A
C2936      H2941   1.084       .  S
C2937      C2938   1.417       .  A
C2938     Br2939   1.921       .  S
C2943      C2944   1.407       .  A
C2943      C2948   1.395       .  A
C2943      H2950   1.084       .  S
C2944      C2945   1.411       .  A
C2945      C2946   1.400       .  A
C2945     Br2952   1.921       .  S
C2946      C2947   1.407       .  A
C2946      H2951   1.084       .  S
C2947      C2948   1.409       .  A
C2948     Br2949   1.922       .  S
C2953      C2954   1.414       .  A
C2953      C2958   1.395       .  A
C2953      H2960   1.083       .  S
C2954      C2955   1.415       .  A
C2955      C2956   1.400       .  A
C2955     Br2962   1.916       .  S
C2956      C2957   1.402       .  A
C2956      H2961   1.084       .  S
C2957      C2958   1.401       .  A
C2958     Br2959   1.919       .  S
C2963      C2964   1.409       .  A
C2963      C2968   1.395       .  A
C2963      H2970   1.083       .  S
C2964      C2965   1.418       .  A
C2965      C2966   1.396       .  A
C2965     Br2972   1.922       .  S
C2966      C2967   1.401       .  A
C2966      H2971   1.084       .  S
C2967      C2968   1.406       .  A
C2968     Br2969   1.920       .  S
C2973      C2974   1.405       .  A
C2973      C2978   1.398   1_556  A
C2973      H2980   1.084       .  S
C2974      C2975   1.413       .  A
C2975      C2976   1.401   1_556  A
C2975     Br2982   1.920       .  S
C2976      C2977   1.406       .  A
C2976      H2981   1.084       .  S
C2977      C2978   1.410       .  A
C2978     Br2979   1.919       .  S
C2983      C2984   1.408       .  A
C2983      C2988   1.393       .  A
C2983      H2990   1.083       .  S
C2984      C2985   1.418       .  A
C2985      C2986   1.400       .  A
C2985     Br2992   1.916       .  S
C2986      C2987   1.402       .  A
C2986      H2991   1.084       .  S
C2987      C2988   1.408       .  A
C2988     Br2989   1.922       .  S
C2993      C2994   1.398       .  A
C2993      C2998   1.393       .  A
C2993      H3000   1.084       .  S
C2994      C2995   1.402       .  A
C2995      C2996   1.394       .  A
C2995     Br3002   1.918       .  S
C2996      C2997   1.405       .  A
C2996      H3001   1.084       .  S
C2997      C2998   1.409       .  A
C2998     Br2999   1.920       .  S
C3003      C3004   1.407       .  A
C3003      C3008   1.405       .  A
C3003      H3010   1.083       .  S
C3004      C3005   1.416       .  A
C3005      C3006   1.396       .  A
C3005     Br3012   1.923       .  S
C3006      C3007   1.404       .  A
C3006      H3011   1.084       .  S
C3007      C3008   1.415       .  A
C3008     Br3009   1.917       .  S
C3013      C3014   1.408       .  A
C3013      C3018   1.404   1_556  A
C3013      H3020   1.083       .  S
C3014      C3015   1.414       .  A
C3015      C3016   1.402   1_556  A
C3015     Br3022   1.920       .  S
C3016      C3017   1.405       .  A
C3016      H3021   1.084       .  S
C3017      C3018   1.412       .  A
C3018     Br3019   1.920       .  S
C3023      C3024   1.409       .  A
C3023      C3028   1.400       .  A
C3023      H3030   1.084       .  S
C3024      C3025   1.410       .  A
C3025      C3026   1.396       .  A
C3025     Br3032   1.920       .  S
C3026      C3027   1.408       .  A
C3026      H3031   1.084       .  S
C3027      C3028   1.411       .  A
C3028     Br3029   1.920       .  S
C3033      C3034   1.408       .  A
C3033      C3038   1.396       .  A
C3033      H3040   1.083       .  S
C3034      C3035   1.413       .  A
C3035      C3036   1.398       .  A
C3035     Br3042   1.923       .  S
C3036      C3037   1.408   1_545  A
C3036      H3041   1.084   1_545  S
C3037      C3038   1.409   1_565  A
C3038     Br3039   1.921   1_545  S
C3043      C3044   1.404       .  A
C3043      C3048   1.402       .  A
C3043      H3050   1.084       .  S
C3044      C3045   1.404       .  A
C3045      C3046   1.393       .  A
C3045     Br3052   1.922       .  S
C3046      C3047   1.413       .  A
C3046      H3051   1.083       .  S
C3047      C3048   1.416       .  A
C3048     Br3049   1.916       .  S
C3053      C3054   1.400       .  A
C3053      C3058   1.397       .  A
C3053      H3060   1.084       .  S
C3054      C3055   1.402       .  A
C3055      C3056   1.394       .  A
C3055     Br3062   1.919       .  S
C3056      C3057   1.406       .  A
C3056      H3061   1.084       .  S
C3057      C3058   1.412       .  A
C3058     Br3059   1.921       .  S
C3063      C3064   1.403       .  A
C3063      C3068   1.400       .  A
C3063      H3070   1.083       .  S
C3064      C3065   1.412       .  A
C3065      C3066   1.394       .  A
C3065     Br3072   1.923       .  S
C3066      C3067   1.408       .  A
C3066      H3071   1.084       .  S
C3067      C3068   1.416       .  A
C3068     Br3069   1.915       .  S
