geometry optimzed in LAMMPS
_audit_creation_date              2020-12-01 
_audit_creation_method            'lammps2cif' 
_symmetry_space_group_name_H-M    'P1' 
_symmetry_Int_Tables_number       1 
_symmetry_cell_setting            triclinic 
loop_ 
_symmetry_equiv_pos_as_xyz 
  x,y,z 
_cell_length_a                    48.86397344 
_cell_length_b                    26.768190881050728 
_cell_length_c                    29.79830091213079 
_cell_angle_alpha                 89.68136693538365 
_cell_angle_beta                  93.29829859602147 
_cell_angle_gamma                 90.05881036522835 
loop_ 
_atom_site_label 
_atom_site_type_symbol 
_atom_site_fract_x 
_atom_site_fract_y 
_atom_site_fract_z 
_atom_site_charge 
O1          O  0.85569257  0.55122229  0.62637837    -0.84700
O2          O  0.80910445  0.60493300  0.62277509    -0.81800
C3          C  0.78633533  0.62161856  0.63305004     0.98700
O4          O  0.77939031  0.62057595  0.67342130    -0.81800
O5          O  0.77544315  0.52139108  0.70157970    -0.84400
C6          C  0.78249763  0.47802292  0.71422611     1.03300
O7          O  0.80702299  0.47006157  0.72831221    -0.77200
O8          O  0.83472093  0.48555499  0.65186849    -0.77400
C9          C  0.84474033  0.50861779  0.61966839     1.03200
O10         O  0.87575424  0.61000346  0.70403693    -0.84700
O11         O  0.82840947  0.66982531  0.69375252    -0.81800
C12         C  0.81828517  0.67727363  0.73147263     0.98800
O13         O  0.81166825  0.64054069  0.75487049    -0.81800
O14         O  0.80537043  0.54558765  0.78552576    -0.84400
C15         C  0.82889661  0.53364595  0.80274558     1.03200
O16         O  0.84843095  0.52517714  0.77793607    -0.77200
O17         O  0.88006432  0.52873736  0.70402846    -0.77400
C18         C  0.89068255  0.57170463  0.70877446     1.03200
Cr19       Cr  0.84139640  0.60616858  0.66487977     1.93700
Cr20       Cr  0.79515602  0.58066427  0.72686109     1.93200
Cr21       Cr  0.84153562  0.50656755  0.71458070     1.39100
O22         O  0.82593790  0.56477549  0.70220822    -1.22500
O23         O  0.65245249  0.93628135  0.33510544    -0.84700
O24         O  0.68362380  0.94619569  0.26166329    -0.81800
C25         C  0.70773743  0.93749096  0.27758006     0.98700
O26         O  0.71392298  0.89454706  0.29234908    -0.81800
O27         O  0.70784736  0.79858224  0.32593320    -0.84400
C28         C  0.69964749  0.80176460  0.36555970     1.03300
O29         O  0.67621536  0.81849617  0.37181447    -0.77200
O30         O  0.62990062  0.87293017  0.36119518    -0.77400
C31         C  0.64099972  0.91549411  0.36713691     1.03200
O32         O  0.60886349  0.89072665  0.27970237    -0.84700
O33         O  0.64362893  0.88954027  0.20986145    -0.81800
C34         C  0.66397095  0.87864875  0.18754619     0.98800
O35         O  0.68668946  0.86615098  0.20739352    -0.81800
O36         O  0.67792135  0.77333153  0.24234497    -0.84400
C37         C  0.66924754  0.73896918  0.26667930     1.03200
O38         O  0.65872017  0.74953437  0.30338718    -0.77200
O39         O  0.61254764  0.80974033  0.28586461    -0.77400
C40         C  0.59787878  0.84783191  0.27796887     1.03200
Cr41       Cr  0.64809944  0.91150321  0.27279604     1.93700
Cr42       Cr  0.69423383  0.83461034  0.26867709     1.93200
Cr43       Cr  0.64546928  0.81532885  0.32730241     1.39100
O44         O  0.66268760  0.85356108  0.28942457    -1.22500
O45         O  0.63079535  0.04722675  0.86365321    -0.84700
O46         O  0.67640701  0.10365553  0.86966687    -0.81800
C47         C  0.69921639  0.12172438  0.86097699     0.98700
O48         O  0.70654541  0.12262036  0.82072832    -0.81800
O49         O  0.71288690  0.02473177  0.79175177    -0.84400
C50         C  0.70687943  0.98165868  0.77748245     1.03300
O51         O  0.68258004  0.97221664  0.76297834    -0.77200
O52         O  0.65321232  0.98345926  0.83851713    -0.77400
C53         C  0.64239376  0.00522569  0.87049494     1.03200
O54         O  0.61084565  0.10663542  0.78675923    -0.84700
O55         O  0.65693031  0.16927569  0.79882902    -0.81800
C56         C  0.66700252  0.17809067  0.76125918     0.98800
O57         O  0.67463335  0.14226047  0.73793869    -0.81800
O58         O  0.68377400  0.04849116  0.70642770    -0.84400
C59         C  0.66082265  0.03463380  0.68820198     1.03200
O60         O  0.64084257  0.02549259  0.71201933    -0.77200
O61         O  0.60797725  0.02523448  0.78447268    -0.77400
C62         C  0.59657533  0.06768335  0.78084002     1.03200
Cr63       Cr  0.64474476  0.10398709  0.82652998     1.93700
Cr64       Cr  0.69225192  0.08314934  0.76606818     1.93200
Cr65       Cr  0.64707744  0.00579073  0.77561373     1.39100
O66         O  0.66141439  0.06459131  0.78929562    -1.22500
O67         O  0.83895484  0.43807860  0.15654076    -0.84700
O68         O  0.80902165  0.44796376  0.23138385    -0.81800
C69         C  0.78475815  0.44172073  0.21553660     0.98700
O70         O  0.77789505  0.39999985  0.19897700    -0.81800
O71         O  0.78211046  0.30316865  0.16494603    -0.84400
C72         C  0.79104406  0.30398902  0.12567193     1.03300
O73         O  0.81436079  0.32152508  0.11953296    -0.77200
O74         O  0.86098462  0.37446363  0.13040318    -0.77400
C75         C  0.85003170  0.41717650  0.12444720     1.03200
O76         O  0.88242265  0.39088777  0.21042336    -0.84700
O77         O  0.84838810  0.38914496  0.28086140    -0.81800
C78         C  0.82813223  0.37896367  0.30367508     0.98800
O79         O  0.80506856  0.36768684  0.28409863    -0.81800
O80         O  0.81121877  0.27527823  0.24817845    -0.84400
C81         C  0.81958257  0.24071286  0.22408803     1.03200
O82         O  0.83110368  0.25115176  0.18811377    -0.77200
O83         O  0.87836703  0.31002989  0.20538426    -0.77400
C84         C  0.89323429  0.34799208  0.21303772     1.03200
Cr85       Cr  0.84366859  0.41237456  0.21847404     1.93700
Cr86       Cr  0.79637254  0.33804024  0.22233273     1.93200
Cr87       Cr  0.84511943  0.31684914  0.16412555     1.39100
O88         O  0.82832547  0.35525817  0.20191544    -1.22500
O89         O  0.12888302  0.54683970  0.87584311    -0.84700
O90         O  0.17503100  0.60225673  0.88016944    -0.81800
C91         C  0.19821290  0.61864748  0.87135780     0.98700
O92         O  0.20601987  0.61665444  0.83135746    -0.81800
O93         O  0.21062996  0.51654367  0.80522402    -0.84400
C94         C  0.20378380  0.47301692  0.79299761     1.03300
O95         O  0.17943267  0.46504648  0.77788995    -0.77200
O96         O  0.15006164  0.48110132  0.85169697    -0.77400
C97         C  0.13964243  0.50405061  0.88321648     1.03200
O98         O  0.10993777  0.60438919  0.79589898    -0.84700
O99         O  0.15653504  0.66466846  0.80633661    -0.81800
C100        C  0.16678196  0.67129077  0.76855795     0.98800
O101        O  0.17481463  0.63430604  0.74717084    -0.81800
O102        O  0.18220686  0.53914114  0.71914277    -0.84400
C103        C  0.15894565  0.52664186  0.70115364     1.03200
O104        O  0.13888274  0.51959288  0.72515015    -0.77200
O105        O  0.10576343  0.52341376  0.79655621    -0.77400
C106        C  0.09513086  0.56615747  0.79010237     1.03200
Cr107      Cr  0.14355304  0.60158591  0.83656864     1.93700
Cr108      Cr  0.19120263  0.57547986  0.77769940     1.93200
Cr109      Cr  0.14455548  0.50153378  0.78877968     1.39100
O110        O  0.15992473  0.55978822  0.80109309    -1.22500
O111        O  0.34061897  0.92970917  0.16949470    -0.84700
O112        O  0.30893645  0.94291136  0.24280472    -0.81800
C113        C  0.28473332  0.93695074  0.22648353     0.98700
O114        O  0.27782585  0.89527167  0.21004793    -0.81800
O115        O  0.28130348  0.79857145  0.17665911    -0.84400
C116        C  0.29116431  0.79846300  0.13793038     1.03300
O117        O  0.31521738  0.81325315  0.13340189    -0.77200
O118        O  0.36229157  0.86369515  0.14657239    -0.77400
C119        C  0.35191850  0.90655972  0.13877130     1.03200
O120        O  0.38207389  0.88140571  0.22715902    -0.84700
O121        O  0.34669142  0.88322682  0.29500395    -0.81800
C122        C  0.32607526  0.87371513  0.31714841     0.98800
O123        O  0.30305568  0.86335867  0.29688787    -0.81800
O124        O  0.30834587  0.77042049  0.26255838    -0.84400
C125        C  0.31656510  0.73498039  0.23951469     1.03200
O126        O  0.32884689  0.74381735  0.20400072    -0.77200
O127        O  0.37649268  0.80051309  0.22432338    -0.77400
C128        C  0.39170406  0.83777930  0.23293161     1.03200
Cr129      Cr  0.34346825  0.90533956  0.23221722     1.93700
Cr130      Cr  0.29497964  0.83320362  0.23491355     1.93200
Cr131      Cr  0.34464897  0.80803645  0.18021614     1.39100
O132        O  0.32755239  0.84852747  0.21590114    -1.22500
O133        O  0.14970250  0.42690426  0.35087260    -0.84700
O134        O  0.18196567  0.44177990  0.28053562    -0.81800
C135        C  0.20577876  0.43300764  0.29775620     0.98700
O136        O  0.21201751  0.38948412  0.31090780    -0.81800
O137        O  0.20612076  0.29081790  0.33948405    -0.84400
C138        C  0.19679430  0.29078749  0.37858305     1.03300
O139        O  0.17345760  0.30823096  0.38399663    -0.77200
O140        O  0.12716584  0.36200188  0.37383150    -0.77400
C141        C  0.13821117  0.40434763  0.38170083     1.03200
O142        O  0.10722239  0.38342927  0.29190827    -0.84700
O143        O  0.14304502  0.38688320  0.22516413    -0.81800
C144        C  0.16381524  0.37986252  0.20296004     0.98800
O145        O  0.18642688  0.36618159  0.22279183    -0.81800
O146        O  0.17788351  0.27097378  0.25318647    -0.84400
C147        C  0.16936903  0.23465995  0.27531457     1.03200
O148        O  0.15788562  0.24251121  0.31178683    -0.77200
O149        O  0.11160975  0.30217689  0.29462450    -0.77400
C150        C  0.09709641  0.34021737  0.28585360     1.03200
Cr151      Cr  0.14645120  0.40557317  0.28827835     1.93700
Cr152      Cr  0.19331721  0.33064438  0.28315398     1.93200
Cr153      Cr  0.14359292  0.30651146  0.33810418     1.39100
O154        O  0.16121690  0.34729969  0.30304145    -1.22500
O155        O  0.35555935  0.04221396  0.64065273    -0.84700
O156        O  0.30811831  0.09379701  0.63703296    -0.81800
C157        C  0.28519457  0.10982265  0.64728813     0.98700
O158        O  0.27889734  0.11072261  0.68800804    -0.81800
O159        O  0.27583125  0.01226943  0.71666114    -0.84400
C160        C  0.28302643  0.96913718  0.72953896     1.03300
O161        O  0.30757000  0.96118419  0.74330308    -0.77200
O162        O  0.33509689  0.97640653  0.66667009    -0.77400
C163        C  0.34492406  0.99938907  0.63425098     1.03200
O164        O  0.37544730  0.10229369  0.71622355    -0.84700
O165        O  0.32746172  0.16098731  0.70678644    -0.81800
C166        C  0.31785066  0.16887534  0.74487477     0.98800
O167        O  0.31156822  0.13235218  0.76890009    -0.81800
O168        O  0.30575094  0.03712079  0.80082677    -0.84400
C169        C  0.32920350  0.02427524  0.81789619     1.03200
O170        O  0.34868683  0.01629789  0.79289485    -0.77200
O171        O  0.38008015  0.02092667  0.71930605    -0.77400
C172        C  0.39043755  0.06421531  0.72273629     1.03200
Cr173      Cr  0.34076949  0.09708512  0.67840968     1.93700
Cr174      Cr  0.29524755  0.07179663  0.74171558     1.93200
Cr175      Cr  0.34180769  0.99797249  0.72945547     1.39100
O176        O  0.32600068  0.05603452  0.71689526    -1.22500
C177        C  0.21372090  0.24493417  0.49818945    -0.13700
C178        C  0.23658619  0.21444432  0.49328185     0.16700
C179        C  0.24687928  0.20954956  0.44998323     0.03000
C180        C  0.23420575  0.23554209  0.41305864    -0.12200
C181        C  0.21167117  0.26716927  0.41845649    -0.03300
C182        C  0.20168498  0.27182423  0.46207270     0.02200
C183        C  0.24829013  0.18707215  0.53385889     0.09000
N184        N  0.27016611  0.17867977  0.44288265     0.65400
H185        H  0.24196032  0.23077505  0.38007903     0.18300
N186        N  0.17911787  0.30363801  0.47071403     0.75900
H187        H  0.20495785  0.24799800  0.53058931     0.09800
C188        C  0.25324052  0.21161156  0.57566394     0.03500
C189        C  0.26216257  0.18404073  0.61393011    -0.05200
C190        C  0.26755375  0.13286058  0.61117124    -0.23600
C191        C  0.26220734  0.10805596  0.56998479     0.12800
C192        C  0.25235649  0.13513573  0.53192348    -0.12700
N193        N  0.25088202  0.26486588  0.57939103     0.64400
H194        H  0.26725271  0.20352067  0.64504481     0.12300
N195        N  0.26694299  0.05542654  0.56639691     0.61100
H196        H  0.24764671  0.11542410  0.50086307     0.08400
O197        O  0.15560495  0.28507161  0.47450091    -0.40400
O198        O  0.18354789  0.34847221  0.48173002    -0.39600
O199        O  0.26920733  0.14727275  0.41138300    -0.39600
O200        O  0.29227260  0.18479481  0.46626167    -0.37300
O201        O  0.25755704  0.02548857  0.59458636    -0.38200
O202        O  0.27984479  0.03860188  0.53427976    -0.34300
O203        O  0.24010550  0.28369189  0.61287624    -0.35700
O204        O  0.26177282  0.29324064  0.55149725    -0.40000
C205        C  0.27285426  0.50479726  0.29081858    -0.13700
C206        C  0.26339303  0.55418780  0.29078298     0.16700
C207        C  0.23559311  0.56351614  0.29778008     0.03000
C208        C  0.21743014  0.52349156  0.30213911    -0.12200
C209        C  0.22646029  0.47379867  0.29971412    -0.03300
C210        C  0.25470696  0.46462795  0.29549462     0.02200
C211        C  0.28186230  0.59553943  0.27895251     0.09000
N212        N  0.22522617  0.61345687  0.29809421     0.65400
H213        H  0.19595196  0.53137219  0.30581435     0.18300
N214        N  0.26498739  0.41488219  0.29256178     0.75900
H215        H  0.29418805  0.49738262  0.28542208     0.09800
C216        C  0.29312750  0.62854307  0.31164553     0.03500
C217        C  0.30629095  0.67229978  0.29820932    -0.05200
C218        C  0.30879702  0.68352574  0.25241557    -0.23600
C219        C  0.29857760  0.64902579  0.21983322     0.12800
C220        C  0.28522560  0.60555952  0.23339211    -0.12700
N221        N  0.29052720  0.61884804  0.35844937     0.64400
H222        H  0.31376384  0.69850059  0.32362806     0.12300
N223        N  0.29874951  0.66018379  0.17286396     0.61100
H224        H  0.27615618  0.58074957  0.20808102     0.08400
O225        O  0.27877593  0.39596986  0.32548791    -0.40400
O226        O  0.26346878  0.39254569  0.25532050    -0.39600
O227        O  0.22188665  0.63762459  0.26171181    -0.39600
O228        O  0.21583856  0.63066059  0.33342521    -0.37300
O229        O  0.32032936  0.65355329  0.15237714    -0.38200
O230        O  0.27644992  0.66873738  0.15067996    -0.34300
O231        O  0.30387964  0.58353728  0.37744777    -0.35700
O232        O  0.27767214  0.64904695  0.38186050    -0.40000
C233        C  0.20158590  0.12837871  0.21299550    -0.13700
C234        C  0.20310765  0.09134395  0.24631335     0.16700
C235        C  0.18942616  0.09848684  0.28605263     0.03000
C236        C  0.17607335  0.14394034  0.29325681    -0.12200
C237        C  0.17637404  0.18298681  0.26139899    -0.03300
C238        C  0.18831628  0.17377890  0.21993195     0.02200
C239        C  0.22314937  0.05044118  0.24225843     0.09000
N240        N  0.19076615  0.06142130  0.32078529     0.65400
H241        H  0.16721117  0.14984249  0.32527455     0.18300
N242        N  0.18887200  0.21128322  0.18563168     0.75900
H243        H  0.21213256  0.12311946  0.18237418     0.09800
C244        C  0.21608157  0.00464873  0.22186438     0.03500
C245        C  0.23642786  0.96861207  0.21593355    -0.05200
C246        C  0.26405591  0.97757464  0.22995416    -0.23600
C247        C  0.27092956  0.02413215  0.25014400     0.12800
C248        C  0.25050465  0.05965682  0.25624335    -0.12700
N249        N  0.18835725  0.99432445  0.20699686     0.64400
H250        H  0.23046583  0.93334234  0.20070789     0.12300
N251        N  0.29854462  0.03640381  0.26442417     0.61100
H252        H  0.25612235  0.09520487  0.27133647     0.08400
O253        O  0.16819181  0.21767887  0.15889005    -0.40400
O254        O  0.21109904  0.23307787  0.17823985    -0.39600
O255        O  0.20724738  0.06676980  0.35459191    -0.39600
O256        O  0.17302519  0.02714269  0.32064097    -0.37300
O257        O  0.31482903  0.05189346  0.23605134    -0.38200
O258        O  0.30542576  0.03876732  0.30583147    -0.34300
O259        O  0.18084582  0.99978604  0.16605088    -0.35700
O260        O  0.17262444  0.97292112  0.23318924    -0.40000
C261        C  0.35698276  0.89853466  0.43476381    -0.13700
C262        C  0.33360022  0.91007200  0.45752908     0.16700
C263        C  0.30745379  0.90357670  0.43574618     0.03000
C264        C  0.30521392  0.88785145  0.39077139    -0.12200
C265        C  0.32874470  0.87922335  0.36687845    -0.03300
C266        C  0.35484764  0.88252035  0.39009744     0.02200
C267        C  0.33722831  0.93135037  0.50319087     0.09000
N268        N  0.28312370  0.91633823  0.45766461     0.65400
H269        H  0.28513166  0.88574686  0.37375524     0.18300
N270        N  0.37948742  0.87024036  0.36879973     0.75900
H271        H  0.37701648  0.90239575  0.45171783     0.09800
C272        C  0.33044659  0.90437294  0.54167197     0.03500
C273        C  0.33342900  0.92700904  0.58400445    -0.05200
C274        C  0.34361505  0.97608897  0.58894401    -0.23600
C275        C  0.35068436  0.00258701  0.55004550     0.12800
C276        C  0.34744677  0.98005726  0.50781373    -0.12700
N277        N  0.32116490  0.85369659  0.53839253     0.64400
H278        H  0.32794482  0.90577610  0.61316530     0.12300
N279        N  0.36037496  0.05292634  0.55243222     0.61100
H280        H  0.35259720  0.00099777  0.47826389     0.08400
O281        O  0.38340972  0.82608710  0.35598666    -0.40400
O282        O  0.39855070  0.90194263  0.36724386    -0.39600
O283        O  0.27955310  0.96063763  0.47030030    -0.39600
O284        O  0.26361585  0.88549715  0.45860127    -0.37300
O285        O  0.38579713  0.06144907  0.55642506    -0.38200
O286        O  0.34391571  0.08853361  0.54414301    -0.34300
O287        O  0.33650266  0.82069849  0.52314895    -0.35700
O288        O  0.29934066  0.84075454  0.55596247    -0.40000
C289        C  0.36245603  0.99620324  0.93421552    -0.13700
C290        C  0.33942838  0.98582390  0.95846270     0.16700
C291        C  0.31302162  0.99081523  0.93733668     0.03000
C292        C  0.31016522  0.00514084  0.89195454    -0.12200
C293        C  0.33322945  0.01476162  0.86705688    -0.03300
C294        C  0.35969152  0.01086465  0.88896502     0.02200
C295        C  0.34354734  0.96552465  0.00456841     0.09000
N296        N  0.28901022  0.98065578  0.96133528     0.65400
H297        H  0.28976940  0.00773665  0.87590556     0.18300
N298        N  0.38399007  0.02148414  0.86594049     0.75900
H299        H  0.38274846  0.99223658  0.95045168     0.09800
C300        C  0.34106608  0.91393260  0.01280591     0.03500
C301        C  0.34509955  0.89543061  0.05666311    -0.05200
C302        C  0.35139771  0.92762871  0.09283714    -0.23600
C303        C  0.35381627  0.97938277  0.08458343     0.12800
C304        C  0.34995002  0.99789518  0.04050286    -0.12700
N305        N  0.33406169  0.88002102  0.97700131     0.64400
H306        H  0.34263369  0.85579192  0.06256703     0.12300
N307        N  0.36078564  0.01329159  0.12039323     0.61100
H308        H  0.35196325  0.03756746  0.03423321     0.08400
O309        O  0.40302168  0.98963470  0.86590631    -0.40400
O310        O  0.38793131  0.06482793  0.85069694    -0.39600
O311        O  0.28554291  0.00219583  0.99815211    -0.39600
O312        O  0.27017655  0.95340626  0.94402112    -0.37300
O313        O  0.38381169  0.01004184  0.14166924    -0.38200
O314        O  0.34506049  0.04923343  0.12806481    -0.34300
O315        O  0.35040700  0.87315661  0.94634116    -0.35700
O316        O  0.31264025  0.85377149  0.97805377    -0.40000
C317        C  0.24477602  0.70889356  0.93908883    -0.13700
C318        C  0.23971982  0.69475110  0.98353252     0.16700
C319        C  0.22229981  0.65361523  0.99028767     0.03000
C320        C  0.20992180  0.62863070  0.95317589    -0.12200
C321        C  0.21489031  0.64267464  0.90875278    -0.03300
C322        C  0.23287094  0.68293956  0.90193959     0.02200
C323        C  0.25251070  0.72347503  0.02235026     0.09000
N324        N  0.21718936  0.63620937  0.03461023     0.65400
H325        H  0.19631287  0.59772184  0.95924037     0.18300
N326        N  0.23802956  0.69986106  0.85765147     0.75900
H327        H  0.25766810  0.74081265  0.93312599     0.09800
C328        C  0.28085739  0.73377683  0.02540894     0.03500
C329        C  0.29225240  0.76080942  0.06197133    -0.05200
C330        C  0.27636434  0.77664681  0.09732485    -0.23600
C331        C  0.24791922  0.76724439  0.09396345     0.12800
C332        C  0.23625201  0.74120049  0.05655015    -0.12700
N333        N  0.29874954  0.71436564  0.99321421     0.64400
H334        H  0.31417495  0.76674759  0.06381121     0.12300
N335        N  0.23055337  0.78452358  0.12765261     0.61100
H336        H  0.21436369  0.73498306  0.05410856     0.08400
O337        O  0.25929865  0.68553065  0.83938495    -0.40400
O338        O  0.22375417  0.73467882  0.83980593    -0.39600
O339        O  0.19290806  0.62910471  0.04554193    -0.39600
O340        O  0.23692920  0.62425335  0.06172054    -0.37300
O341        O  0.22759067  0.83079930  0.13367617    -0.38200
O342        O  0.21626750  0.75383597  0.14853082    -0.34300
O343        O  0.31616893  0.74250750  0.97620848    -0.35700
O344        O  0.29926254  0.66805203  0.98554961    -0.40000
C345        C  0.17954300  0.41826043  0.08368322    -0.13700
C346        C  0.15290926  0.42433235  0.06411518     0.16700
C347        C  0.13021396  0.41178309  0.08899315     0.03000
C348        C  0.13456043  0.39574053  0.13355886    -0.12200
C349        C  0.16115911  0.39125782  0.15407600    -0.03300
C350        C  0.18385039  0.40196050  0.12836630     0.02200
C351        C  0.14912139  0.44545080  0.01820270     0.09000
N352        N  0.10269336  0.41510363  0.06952472     0.65400
H353        H  0.11684985  0.38682741  0.15233014     0.18300
N354        N  0.21124945  0.39923904  0.14769483     0.75900
H355        H  0.19703328  0.42781148  0.06460754     0.09800
C356        C  0.13617082  0.49203753  0.00974360     0.03500
C357        C  0.13195578  0.50919995  0.96526004    -0.05200
C358        C  0.14097663  0.48143206  0.92902115    -0.23600
C359        C  0.15364145  0.43446477  0.93804077     0.12800
C360        C  0.15758313  0.41719360  0.98225490    -0.12700
N361        N  0.12811255  0.52305190  0.04588580     0.64400
H362        H  0.12264800  0.54548230  0.95926120     0.12300
N363        N  0.16299970  0.40383901  0.90288803     0.61100
H364        H  0.16720478  0.38119686  0.98858347     0.08400
O365        O  0.22234638  0.43753735  0.16530703    -0.40400
O366        O  0.22547462  0.36073201  0.14197288    -0.39600
O367        O  0.09666288  0.39632900  0.03145696    -0.39600
O368        O  0.08382758  0.43240462  0.09213421    -0.37300
O369        O  0.18808112  0.40365169  0.89488252    -0.38200
O370        O  0.14707720  0.37192841  0.88442965    -0.34300
O371        O  0.14431268  0.53014550  0.07980354    -0.35700
O372        O  0.10605699  0.54761407  0.04188552    -0.40000
C373        C  0.15928796  0.48329890  0.48369066    -0.13700
C374        C  0.14555273  0.45900343  0.51748597     0.16700
C375        C  0.12755920  0.41927300  0.50590710     0.03000
C376        C  0.12419541  0.40370682  0.46105562    -0.12200
C377        C  0.13883389  0.42666720  0.42730381    -0.03300
C378        C  0.15620856  0.46765319  0.43905651     0.02200
C379        C  0.14942653  0.47730315  0.56429684     0.09000
N380        N  0.11361866  0.39278713  0.53964563     0.65400
H381        H  0.11099456  0.37216402  0.45304769     0.18300
N382        N  0.17168391  0.49299006  0.40654932     0.75900
H383        H  0.17259726  0.51462019  0.49203700     0.09800
C384        C  0.17577517  0.48165291  0.58600311     0.03500
C385        C  0.17866530  0.50104555  0.62961166    -0.05200
C386        C  0.15563127  0.51543898  0.65249984    -0.23600
C387        C  0.12938242  0.51295351  0.62991393     0.12800
C388        C  0.12653941  0.49367723  0.58634789    -0.12700
N389        N  0.19962821  0.46421755  0.56510807     0.64400
H390        H  0.19885333  0.50214239  0.64648247     0.12300
N391        N  0.10545255  0.53069812  0.65037881     0.61100
H392        H  0.10640624  0.49234104  0.56930192     0.08400
O393        O  0.16088387  0.52836556  0.38366805    -0.40400
O394        O  0.19709838  0.48511882  0.40551890    -0.39600
O395        O  0.08782906  0.38916786  0.53661030    -0.39600
O396        O  0.12717601  0.36938222  0.57034623    -0.37300
O397        O  0.10335700  0.57636843  0.65992838    -0.38200
O398        O  0.08542874  0.50175625  0.65529953    -0.34300
O399        O  0.22019459  0.49241841  0.56248949    -0.35700
O400        O  0.20127656  0.41906129  0.55362925    -0.40000
C401        C  0.18514496  0.80876777  0.76894345    -0.13700
C402        C  0.20327574  0.80989203  0.73416389     0.16700
C403        C  0.20470009  0.76867814  0.70539268     0.03000
C404        C  0.18936483  0.72576945  0.71370559    -0.12200
C405        C  0.17347874  0.72218510  0.75168920    -0.03300
C406        C  0.16995819  0.76557055  0.77761764     0.02200
C407        C  0.22311738  0.85131899  0.73210110     0.09000
N408        N  0.22367055  0.76791176  0.67047932     0.65400
H409        H  0.19221802  0.69342969  0.69282678     0.18300
N410        N  0.15224543  0.76562647  0.81420549     0.75900
H411        H  0.18369693  0.84086121  0.79064507     0.09800
C412        C  0.21940981  0.89133382  0.70158946     0.03500
C413        C  0.23898283  0.92972146  0.70130045    -0.05200
C414        C  0.26260918  0.92821297  0.73061000    -0.23600
C415        C  0.26631553  0.88737925  0.76073315     0.12800
C416        C  0.24658329  0.84961664  0.76123236    -0.12700
N417        N  0.19593100  0.89336675  0.67079128     0.64400
H418        H  0.23587286  0.96036367  0.67773026     0.12300
N419        N  0.28949748  0.88439192  0.79218891     0.61100
H420        H  0.24952762  0.81876602  0.78465614     0.08400
O421        O  0.12678392  0.75948568  0.80668520    -0.40400
O422        O  0.16155917  0.77672735  0.85326637    -0.39600
O423        O  0.24911415  0.76988388  0.68040645    -0.39600
O424        O  0.21530828  0.75798516  0.63067084    -0.37300
O425        O  0.29012510  0.91040695  0.82741436    -0.38200
O426        O  0.30719320  0.85064936  0.78818544    -0.34300
O427        O  0.17577203  0.92033606  0.67948225    -0.35700
O428        O  0.19705326  0.87457151  0.63220434    -0.40000
C429        C  0.27093746  0.39887357  0.79185800    -0.13700
C430        C  0.26099067  0.35136873  0.77965146     0.16700
C431        C  0.23250057  0.34341445  0.77519000     0.03000
C432        C  0.21445446  0.38292326  0.78192710    -0.12200
C433        C  0.22411336  0.43122988  0.79281469    -0.03300
C434        C  0.25282474  0.43861530  0.79900261     0.02200
C435        C  0.28016953  0.30924914  0.77331663     0.09000
N436        N  0.22160094  0.29558238  0.76235083     0.65400
H437        H  0.19266735  0.37587726  0.77716311     0.18300
N438        N  0.26398381  0.48600515  0.81239933     0.75900
H439        H  0.29282763  0.40494457  0.79632167     0.09800
C440        C  0.29386603  0.30328082  0.73325242     0.03500
C441        C  0.30872857  0.25914219  0.72644978    -0.05200
C442        C  0.30993395  0.22034988  0.75867825    -0.23600
C443        C  0.29815832  0.22883890  0.80042859     0.12800
C444        C  0.28312695  0.27256536  0.80690607    -0.12700
N445        N  0.29150185  0.34009188  0.69806181     0.64400
H446        H  0.31746932  0.25364438  0.69428365     0.12300
N447        N  0.30039554  0.19271912  0.83610806     0.61100
H448        H  0.27314706  0.27749403  0.83810291     0.08400
O449        O  0.27899207  0.50973475  0.78657212    -0.40400
O450        O  0.26214961  0.50057697  0.85232870    -0.39600
O451        O  0.20581010  0.27280685  0.78756198    -0.39600
O452        O  0.22602965  0.27783262  0.72428917    -0.37300
O453        O  0.32368627  0.18072397  0.85333008    -0.38200
O454        O  0.27909803  0.17573463  0.85280583    -0.34300
O455        O  0.31244503  0.35329607  0.67810875    -0.35700
O456        O  0.26825532  0.35621396  0.68412532    -0.40000
C457        C  0.02338330  0.29394950  0.26967162    -0.13700
C458        C  0.01195250  0.33008319  0.23978468     0.16700
C459        C  0.02922716  0.36723590  0.22276902     0.03000
C460        C  0.05680058  0.36986021  0.23850223    -0.12200
C461        C  0.06798323  0.33491471  0.26966139    -0.03300
C462        C  0.05116245  0.29593524  0.28462307     0.02200
C463        C  0.98154082  0.33331622  0.23215383     0.09000
N464        N  0.01904840  0.40237215  0.18932504     0.65400
H465        H  0.06970628  0.39889993  0.22571547     0.18300
N466        N  0.06136066  0.26034325  0.31751861     0.75900
H467        H  0.01034237  0.26590658  0.28364168     0.09800
C468        C  0.96515560  0.29214271  0.21823606     0.03500
C469        C  0.93643565  0.29713303  0.21389069    -0.05200
C470        C  0.92355605  0.34312501  0.22172553    -0.23600
C471        C  0.94022315  0.38419263  0.23591962     0.12800
C472        C  0.96866377  0.37846430  0.24179263    -0.12700
N473        N  0.97738523  0.24570491  0.20667579     0.64400
H474        H  0.92428255  0.26535529  0.20257267     0.12300
N475        N  0.92891816  0.43233987  0.24435422     0.61100
H476        H  0.98087684  0.40997602  0.25362434     0.08400
O477        O  0.05884943  0.21417934  0.30994954    -0.40400
O478        O  0.06990660  0.27485879  0.35606034    -0.39600
O479        O  0.02539842  0.44798386  0.19255707    -0.39600
O480        O  0.00549145  0.38727228  0.15467066    -0.37300
O481        O  0.93246565  0.45107512  0.28301933    -0.38200
O482        O  0.92208433  0.46058588  0.21154839    -0.34300
O483        O  0.96945545  0.20539123  0.22385888    -0.35700
O484        O  0.99437842  0.24442767  0.17635866    -0.40000
C485        C  0.52229371  0.11315452  0.77370854    -0.13700
C486        C  0.50846458  0.07104294  0.75599214     0.16700
C487        C  0.52388221  0.02870834  0.74446825     0.03000
C488        C  0.55245238  0.02875544  0.75301240    -0.12200
C489        C  0.56632505  0.07055671  0.77151468    -0.03300
C490        C  0.55088070  0.11327417  0.78160494     0.02200
C491        C  0.47792833  0.07150992  0.75118967     0.09000
N492        N  0.51100275  0.98582698  0.72343269     0.65400
H493        H  0.56398943  0.99606844  0.74421728     0.18300
N494        N  0.56366126  0.15621329  0.80195234     0.75900
H495        H  0.51070270  0.14569822  0.78276768     0.09800
C496        C  0.46194349  0.03442968  0.77141601     0.03500
C497        C  0.43352055  0.03302071  0.76138838    -0.05200
C498        C  0.42038963  0.06890500  0.73313722    -0.23600
C499        C  0.43621632  0.10718040  0.71469103     0.12800
C500        C  0.46471403  0.10825063  0.72395641    -0.12700
N501        N  0.47411574  0.99846657  0.80253371     0.64400
H502        H  0.42146925  0.00419961  0.77646189     0.12300
N503        N  0.42401304  0.14307032  0.68396426     0.61100
H504        H  0.47674746  0.13663167  0.70818836     0.08400
O505        O  0.56859229  0.15723347  0.84397625    -0.40400
O506        O  0.56655997  0.19539841  0.77897688    -0.39600
O507        O  0.49269674  0.99132885  0.69214440    -0.39600
O508        O  0.51980394  0.94247432  0.73288468    -0.37300
O509        O  0.42520711  0.18897592  0.69326614    -0.38200
O510        O  0.41527868  0.12955412  0.64522475    -0.34300
O511        O  0.49227240  0.01181454  0.83190010    -0.35700
O512        O  0.46479069  0.95450461  0.80379846    -0.40000
C513        C  0.73629249  0.24087644  0.04820006    -0.13700
C514        C  0.75238465  0.22388014  0.01356530     0.16700
C515        C  0.78062233  0.23509115  0.01569144     0.03000
C516        C  0.79196744  0.26360082  0.05123044    -0.12200
C517        C  0.77619779  0.27978072  0.08651523    -0.03300
C518        C  0.74798424  0.26824642  0.08473379     0.02200
C519        C  0.73950525  0.19611218  0.97450727     0.09000
N520        N  0.79841503  0.21571112  0.98327671     0.65400
H521        H  0.81378774  0.27064224  0.05235195     0.18300
N522        N  0.73083669  0.28495748  0.11895916     0.75900
H523        H  0.71451405  0.23351136  0.04654751     0.09800
C524        C  0.72293385  0.15371078  0.98043954     0.03500
C525        C  0.71115886  0.12893907  0.94279439    -0.05200
C526        C  0.71585636  0.14477979  0.89872402    -0.23600
C527        C  0.73297306  0.18652161  0.89275456     0.12800
C528        C  0.74408361  0.21229501  0.93049037    -0.12700
N529        N  0.71802555  0.13493808  0.02438259     0.64400
H530        H  0.69824255  0.09692425  0.94812442     0.12300
N531        N  0.73858095  0.20434172  0.84883880     0.61100
H532        H  0.75646008  0.24507424  0.92537742     0.08400
O533        O  0.71751071  0.25371253  0.14089149    -0.40400
O534        O  0.72707071  0.33110677  0.12449623    -0.39600
O535        O  0.81628799  0.24352157  0.96706627    -0.39600
O536        O  0.79823305  0.16965058  0.97435851    -0.37300
O537        O  0.73205153  0.24834190  0.83722760    -0.38200
O538        O  0.75433258  0.17971579  0.82517199    -0.34300
O539        O  0.69379188  0.12781235  0.03553711    -0.35700
O540        O  0.73786322  0.12164752  0.05074311    -0.40000
C541        C  0.52213387  0.87543932  0.24946514    -0.13700
C542        C  0.50949403  0.83320599  0.26741788     0.16700
C543        C  0.52621202  0.79419928  0.28555620     0.03000
C544        C  0.55490021  0.79880640  0.28634720    -0.12200
C545        C  0.56754215  0.84255552  0.27104840    -0.03300
C546        C  0.55069517  0.88109536  0.25206756     0.02200
C547        C  0.47888029  0.83074759  0.26542168     0.09000
N548        N  0.51450577  0.75077707  0.30527828     0.65400
H549        H  0.56729753  0.76900489  0.30132866     0.18300
N550        N  0.56199388  0.92642705  0.23533546     0.75900
H551        H  0.50967448  0.90494980  0.23412555     0.09800
C552        C  0.46314394  0.87178842  0.27885154     0.03500
C553        C  0.43476630  0.87243077  0.26878929    -0.05200
C554        C  0.42122269  0.83202529  0.24729242    -0.23600
C555        C  0.43662486  0.78922703  0.23748274     0.12800
C556        C  0.46523449  0.78929572  0.24574177    -0.12700
N557        N  0.47567305  0.91315464  0.30267713     0.64400
H558        H  0.42319873  0.90482056  0.27800756     0.12300
N559        N  0.42382864  0.74641565  0.21695596     0.61100
H560        H  0.47687545  0.75762913  0.23512886     0.08400
O561        O  0.56956172  0.96024181  0.26268940    -0.40400
O562        O  0.55784735  0.93754013  0.19430035    -0.39600
O563        O  0.52239051  0.70777468  0.29463580    -0.39600
O564        O  0.49838731  0.75539220  0.33661260    -0.37300
O565        O  0.42228100  0.74244178  0.17471754    -0.38200
O566        O  0.41715531  0.70996633  0.24105106    -0.34300
O567        O  0.46841855  0.95733061  0.29292277    -0.35700
O568        O  0.49244609  0.90547993  0.33581784    -0.40000
C569        C  0.69444357  0.62751801  0.20295513    -0.13700
C570        C  0.70277725  0.59561593  0.23869516     0.16700
C571        C  0.69525908  0.60732294  0.28252200     0.03000
C572        C  0.68181740  0.65248905  0.29034971    -0.12200
C573        C  0.67535247  0.68631741  0.25514750    -0.03300
C574        C  0.68049880  0.67225774  0.21070941     0.02200
C575        C  0.72321658  0.55560631  0.23136008     0.09000
N576        N  0.70242920  0.57480235  0.31974476     0.65400
H577        H  0.67797048  0.66245631  0.32455141     0.18300
N578        N  0.67250298  0.70388236  0.17333281     0.75900
H579        H  0.69994816  0.61891647  0.16922387     0.09800
C580        C  0.71852713  0.51682221  0.19995306     0.03500
C581        C  0.73891622  0.48058260  0.19440526    -0.05200
C582        C  0.76422459  0.48247558  0.21947566    -0.23600
C583        C  0.76909230  0.52269384  0.24963317     0.12800
C584        C  0.74874928  0.55842536  0.25516395    -0.12700
N585        N  0.69296932  0.51299747  0.17433329     0.64400
H586        H  0.73475199  0.45049133  0.17088642     0.12300
N587        N  0.79437704  0.52750958  0.27586116     0.61100
H588        H  0.75298192  0.58882022  0.27836405     0.08400
O589        O  0.64751106  0.71405828  0.16493753    -0.40400
O590        O  0.69007561  0.71867677  0.14680911    -0.39600
O591        O  0.71362887  0.59219543  0.35556670    -0.39600
O592        O  0.69656243  0.52891210  0.31755948    -0.37300
O593        O  0.79668585  0.50902785  0.31494534    -0.38200
O594        O  0.81286058  0.55605991  0.26259248    -0.34300
O595        O  0.69237820  0.51553139  0.13198696    -0.35700
O596        O  0.67143236  0.50198569  0.19363328    -0.40000
C597        C  0.77517137  0.00724827  0.26545171    -0.13700
C598        C  0.76634848  0.05706053  0.26643698     0.16700
C599        C  0.73858753  0.06729955  0.27382090     0.03000
C600        C  0.72022314  0.02765388  0.27910932    -0.12200
C601        C  0.72872407  0.97770190  0.27656723    -0.03300
C602        C  0.75667006  0.96760446  0.27037487     0.02200
C603        C  0.78597061  0.09826098  0.25858900     0.09000
N604        N  0.72846501  0.11762226  0.27434452     0.65400
H605        H  0.69891009  0.03600122  0.28384475     0.18300
N606        N  0.76628353  0.91748828  0.26624422     0.73500
H607        H  0.79638880  0.99913779  0.25971922     0.09800
C608        C  0.79300397  0.13345022  0.29238115     0.03500
C609        C  0.80607641  0.17810241  0.28092148    -0.05200
C610        C  0.81276811  0.18829083  0.23644165    -0.23600
C611        C  0.80775138  0.15090429  0.20358216     0.12800
C612        C  0.79431175  0.10654878  0.21489131    -0.12700
N613        N  0.78598827  0.12517032  0.33796496     0.64400
H614        H  0.81012943  0.20590433  0.30671840     0.12300
N615        N  0.81382403  0.15913760  0.15775848     0.61100
H616        H  0.78891800  0.07972144  0.18877105     0.08400
O617        O  0.78394773  0.90020054  0.29473967    -0.40400
O618        O  0.75974682  0.89280026  0.23128215    -0.39600
O619        O  0.73338956  0.14760203  0.24295560    -0.39600
O620        O  0.71202186  0.13045497  0.30333448    -0.37300
O621        O  0.83807299  0.15392704  0.14610580    -0.38200
O622        O  0.79455602  0.16445888  0.12806283    -0.34300
O623        O  0.79018888  0.08309344  0.35642314    -0.35700
O624        O  0.77743359  0.16079135  0.36094272    -0.40000
C625        C  0.63353025  0.89519972  0.06852582    -0.13700
C626        C  0.65587057  0.91545740  0.04739342     0.16700
C627        C  0.68159413  0.91838771  0.07098448     0.03000
C628        C  0.68438753  0.90289167  0.11600481    -0.12200
C629        C  0.66168515  0.88481147  0.13807253    -0.03300
C630        C  0.63624173  0.87917960  0.11342465     0.02200
C631        C  0.65143733  0.93686376  0.00182950     0.09000
N632        N  0.70455697  0.94003965  0.05046478     0.65400
H633        H  0.70395267  0.90777723  0.13441693     0.18300
N634        N  0.61306291  0.85719816  0.13344378     0.75900
H635        H  0.61386301  0.89221371  0.05005983     0.09800
C636        C  0.65734428  0.90975271  0.96331161     0.03500
C637        C  0.65380002  0.93238792  0.92085167    -0.05200
C638        C  0.64379008  0.98160729  0.91589034    -0.23600
C639        C  0.63747347  0.00821994  0.95491918     0.12800
C640        C  0.64154314  0.98576966  0.99731076    -0.12700
N641        N  0.66675268  0.85919422  0.96683661     0.64400
H642        H  0.65879740  0.91112689  0.89163940     0.12300
N643        N  0.62751717  0.05840705  0.95244146     0.61100
H644        H  0.63703444  0.00671397  0.02698435     0.08400
O645        O  0.61544355  0.81555112  0.15336688    -0.40400
O646        O  0.58961318  0.87658374  0.12714329    -0.39600
O647        O  0.70902808  0.98634351  0.05383654    -0.39600
O648        O  0.72206645  0.91224120  0.03364859    -0.37300
O649        O  0.60223290  0.06629924  0.94461727    -0.38200
O650        O  0.64293498  0.09384030  0.96571316    -0.34300
O651        O  0.65113962  0.82559572  0.98072376    -0.35700
O652        O  0.68923521  0.84711986  0.95111330    -0.40000
C653        C  0.62938648  0.01369175  0.57016987    -0.13700
C654        C  0.65099099  0.98978535  0.54983842     0.16700
C655        C  0.67637015  0.98397803  0.57431191     0.03000
C656        C  0.67975154  0.00185776  0.61844505    -0.12200
C657        C  0.65792451  0.02450910  0.63929718    -0.03300
C658        C  0.63264623  0.03127846  0.61447590     0.02200
C659        C  0.64708765  0.97253746  0.50253128     0.09000
N660        N  0.69827066  0.95696064  0.55580719     0.65400
H661        H  0.69900673  0.99529974  0.63735165     0.18300
N662        N  0.61038332  0.05705479  0.63343195     0.75900
H663        H  0.61005709  0.01938329  0.55126176     0.09800
C664        C  0.62694871  0.93688967  0.48952804     0.03500
C665        C  0.62423191  0.92083371  0.44472062    -0.05200
C666        C  0.64134666  0.93961196  0.41215558    -0.23600
C667        C  0.66065077  0.97720341  0.42500252     0.12800
C668        C  0.66345548  0.99286547  0.46986119    -0.12700
N669        N  0.61000815  0.91485862  0.52190222     0.64400
H670        H  0.60934283  0.89208091  0.43582670     0.12300
N671        N  0.67838767  0.99851561  0.39348208     0.61100
H672        H  0.67859318  0.02101967  0.47930187     0.08400
O673        O  0.58665844  0.03821999  0.63135219    -0.40400
O674        O  0.61394646  0.10044920  0.64911104    -0.39600
O675        O  0.72090734  0.97824894  0.55044628    -0.39600
O676        O  0.69607767  0.91045151  0.54984479    -0.37300
O677        O  0.66991746  0.03395224  0.36827066    -0.38200
O678        O  0.70344710  0.98688063  0.39522059    -0.34300
O679        O  0.58424764  0.91699334  0.51613891    -0.35700
O680        O  0.62071712  0.89001979  0.55447596    -0.40000
C681        C  0.96700502  0.54443878  0.71118831    -0.13700
C682        C  0.97737648  0.57604178  0.74560960     0.16700
C683        C  0.95919439  0.60939862  0.76546311     0.03000
C684        C  0.93120429  0.60971383  0.75110166    -0.12200
C685        C  0.92074991  0.57611671  0.71835300    -0.03300
C686        C  0.93906221  0.54388736  0.69767157     0.02200
C687        C  0.00732819  0.57396416  0.75917164     0.09000
N688        N  0.96846619  0.64113000  0.80183454     0.65400
H689        H  0.91731999  0.63420449  0.76746845     0.18300
N690        N  0.92972888  0.51130507  0.66195419     0.75900
H691        H  0.98079627  0.52015931  0.69438589     0.09800
C692        C  0.02058369  0.52792102  0.76893727     0.03500
C693        C  0.04909001  0.52653708  0.77753491    -0.05200
C694        C  0.06508204  0.57029768  0.77807069    -0.23600
C695        C  0.05174730  0.61644335  0.76870713     0.12800
C696        C  0.02322603  0.61780158  0.75919547    -0.12700
N697        N  0.00532023  0.48226793  0.77144275     0.64400
H698        H  0.05863638  0.49078801  0.78516521     0.12300
N699        N  0.06679989  0.66222829  0.76794589     0.61100
H700        H  0.01353445  0.65325180  0.75084709     0.08400
O701        O  0.93662594  0.46586808  0.66281701    -0.40400
O702        O  0.91723885  0.52904412  0.62719707    -0.39600
O703        O  0.96181339  0.68668070  0.80156308    -0.39600
O704        O  0.98108204  0.62274469  0.83621011    -0.37300
O705        O  0.07925910  0.67417370  0.73352720    -0.38200
O706        O  0.06507503  0.69322172  0.79940830    -0.34300
O707        O  0.01361342  0.44327811  0.75285011    -0.35700
O708        O  0.98480340  0.47975974  0.79524551    -0.40000
C709        C  0.75017904  0.65094158  0.52115597    -0.13700
C710        C  0.75235149  0.70330115  0.52046564     0.16700
C711        C  0.76321014  0.72815313  0.55916583     0.03000
C712        C  0.77139281  0.70070477  0.59774195    -0.12200
C713        C  0.76997192  0.64840661  0.59785360    -0.03300
C714        C  0.75932541  0.62342626  0.55926422     0.02200
C715        C  0.74149863  0.73178000  0.48036136     0.09000
N716        N  0.76819255  0.78078472  0.55841239     0.65400
H717        H  0.78089142  0.72000668  0.62642090     0.18300
N718        N  0.75818388  0.57008464  0.55817946     0.75900
H719        H  0.74144917  0.63141834  0.49206280     0.09800
C720        C  0.74934604  0.72111599  0.43653646     0.03500
C721        C  0.73641883  0.74589317  0.39938401    -0.05200
C722        C  0.71615618  0.78214763  0.40522429    -0.23600
C723        C  0.70935367  0.79425000  0.44950061     0.12800
C724        C  0.72157038  0.76834827  0.48617747    -0.12700
N725        N  0.77039115  0.68533756  0.42929734     0.64400
H726        H  0.74186254  0.73600936  0.36590831     0.12300
N727        N  0.68998747  0.83270776  0.45798426     0.61100
H728        H  0.71520153  0.77658010  0.51949134     0.08400
O729        O  0.74052447  0.54707402  0.57967236    -0.40400
O730        O  0.77372980  0.54609439  0.53368829    -0.39600
O731        O  0.75472008  0.80951796  0.58223557    -0.39600
O732        O  0.78821084  0.79777564  0.53814484    -0.37300
O733        O  0.66908508  0.82280703  0.47940585    -0.38200
O734        O  0.69529168  0.87749910  0.44831008    -0.34300
O735        O  0.76606598  0.65045802  0.40145475    -0.35700
O736        O  0.79392116  0.69045338  0.44851252    -0.40000
C737        C  0.85825832  0.40922762  0.42066686    -0.13700
C738        C  0.83451311  0.41811769  0.44337700     0.16700
C739        C  0.80862451  0.40795431  0.42184343     0.03000
C740        C  0.80711116  0.39105116  0.37722832    -0.12200
C741        C  0.83089594  0.38518672  0.35330249    -0.03300
C742        C  0.85684901  0.39226210  0.37627515     0.02200
C743        C  0.83756508  0.43983981  0.48892669     0.09000
N744        N  0.78373160  0.41768625  0.44357767     0.65400
H745        H  0.78710995  0.38596287  0.36028573     0.18300
N746        N  0.88199346  0.38293329  0.35515499     0.75900
H747        H  0.87812411  0.41577015  0.43768226     0.09800
C748        C  0.82999165  0.41351531  0.52733363     0.03500
C749        C  0.83274018  0.43655686  0.56948376    -0.05200
C750        C  0.84337401  0.48534064  0.57438022    -0.23600
C751        C  0.85097556  0.51131991  0.53556329     0.12800
C752        C  0.84810479  0.48836093  0.49350161    -0.12700
N753        N  0.82008149  0.36316000  0.52422214     0.64400
H754        H  0.82676596  0.41577531  0.59860905     0.12300
N755        N  0.86079520  0.56157593  0.53780690     0.61100
H756        H  0.85374367  0.50888655  0.46399210     0.08400
O757        O  0.88599413  0.34112408  0.33726461    -0.40400
O758        O  0.90161388  0.41351626  0.35991561    -0.39600
O759        O  0.78012437  0.45935420  0.46196116    -0.39600
O760        O  0.76405027  0.38713443  0.43974333    -0.37300
O761        O  0.88624482  0.56990642  0.53908333    -0.38200
O762        O  0.84422436  0.59726637  0.53073239    -0.34300
O763        O  0.83420844  0.33000017  0.50645115    -0.35700
O764        O  0.79882679  0.35060448  0.54365898    -0.40000
C765        C  0.86218735  0.50700366  0.91872324    -0.13700
C766        C  0.83923363  0.49441524  0.94263755     0.16700
C767        C  0.81277600  0.49961379  0.92153029     0.03000
C768        C  0.80983782  0.51562228  0.87670549    -0.12200
C769        C  0.83287094  0.52544122  0.85189966    -0.03300
C770        C  0.85929290  0.52244329  0.87376512     0.02200
C771        C  0.84333937  0.47622623  0.98965514     0.09000
N772        N  0.78877797  0.48602074  0.94422947     0.65400
H773        H  0.78945931  0.51745622  0.86055411     0.18300
N774        N  0.88337133  0.53542878  0.85106617     0.75900
H775        H  0.88249195  0.50484681  0.93511451     0.09800
C776        C  0.86067267  0.43532318  0.00073277     0.03500
C777        C  0.86389932  0.41882800  0.04537763    -0.05200
C778        C  0.84948680  0.44131022  0.07941364    -0.23600
C779        C  0.83266433  0.48315711  0.06829994     0.12800
C780        C  0.83001427  0.50042459  0.02385510    -0.12700
N781        N  0.87398544  0.40843376  0.96671158     0.64400
H782        H  0.87673240  0.38661709  0.05293175     0.12300
N783        N  0.81713425  0.50730470  0.10113551     0.61100
H784        H  0.81708137  0.53240657  0.01587139     0.08400
O785        O  0.90239284  0.50396523  0.84810724    -0.40400
O786        O  0.88680886  0.57977136  0.83789277    -0.39600
O787        O  0.76910389  0.51637392  0.94566652    -0.39600
O788        O  0.78603592  0.44200955  0.95873882    -0.37300
O789        O  0.79230309  0.49577161  0.10472829    -0.38200
O790        O  0.82712384  0.54433223  0.12238417    -0.34300
O791        O  0.89937936  0.39976656  0.97124925    -0.35700
O792        O  0.86001851  0.38955688  0.93410229    -0.40000
C793        C  0.78360550  0.78344473  0.79125023    -0.13700
C794        C  0.78613740  0.82270386  0.76059980     0.16700
C795        C  0.80290289  0.81634032  0.72404049     0.03000
C796        C  0.81484104  0.76946583  0.71671553    -0.12200
C797        C  0.81078606  0.72873532  0.74571485    -0.03300
C798        C  0.79570190  0.73690754  0.78438577     0.02200
C799        C  0.76719118  0.86591379  0.76308129     0.09000
N800        N  0.80715780  0.85669636  0.69339272     0.65400
H801        H  0.82648388  0.76448190  0.68724104     0.18300
N802        N  0.79050725  0.69742394  0.81528635     0.75900
H803        H  0.77065661  0.78795170  0.81926796     0.09800
C804        C  0.74448964  0.87123754  0.73177747     0.03500
C805        C  0.72553842  0.90966103  0.73730633    -0.05200
C806        C  0.72830322  0.94283807  0.77360052    -0.23600
C807        C  0.75138061  0.93842359  0.80411861     0.12800
C808        C  0.77053428  0.89997584  0.79872514    -0.12700
N809        N  0.73980459  0.83727109  0.69493887     0.64400
H810        H  0.70815042  0.91312897  0.71325267     0.12300
N811        N  0.75498435  0.97110311  0.84179735     0.61100
H812        H  0.78774030  0.89591763  0.82303850     0.08400
O813        O  0.76732166  0.67647787  0.81395693    -0.40400
O814        O  0.80780066  0.68774885  0.84721919    -0.39600
O815        O  0.81434126  0.89909397  0.70822954    -0.39600
O816        O  0.80593682  0.84913439  0.65155195    -0.37300
O817        O  0.73911808  0.96801608  0.87365831    -0.38200
O818        O  0.77538277  0.00006782  0.84508315    -0.34300
O819        O  0.74139295  0.79068648  0.70139069    -0.35700
O820        O  0.73027818  0.85344128  0.65735300    -0.40000
C821        C  0.68666393  0.31589076  0.76503047    -0.13700
C822        C  0.70183144  0.31936894  0.72646201     0.16700
C823        C  0.70099506  0.27938791  0.69591247     0.03000
C824        C  0.68710591  0.23540965  0.70606265    -0.12200
C825        C  0.67382857  0.22984355  0.74652695    -0.03300
C826        C  0.67244238  0.27179611  0.77503491     0.02200
C827        C  0.72182661  0.36080682  0.72187663     0.09000
N828        N  0.71542754  0.28200634  0.65545882     0.65400
H829        H  0.68803050  0.20446937  0.68298916     0.18300
N830        N  0.65800679  0.26946860  0.81538348     0.75900
H831        H  0.68705005  0.34646909  0.78864382     0.09800
C832        C  0.71378846  0.41125237  0.71838823     0.03500
C833        C  0.73372235  0.44883324  0.71508353    -0.05200
C834        C  0.76183911  0.43706491  0.71544216    -0.23600
C835        C  0.76972546  0.38629416  0.71936709     0.12800
C836        C  0.74981555  0.34901740  0.72255148    -0.12700
N837        N  0.68547503  0.42480256  0.71757450     0.64400
H838        H  0.72714505  0.48736538  0.71257976     0.12300
N839        N  0.79787313  0.37166877  0.72004722     0.61100
H840        H  0.75629381  0.31046586  0.72593237     0.08400
O841        O  0.63217167  0.27180984  0.81326324    -0.40400
O842        O  0.67103438  0.27045837  0.85318163    -0.39600
O843        O  0.73242617  0.24842990  0.64678769    -0.39600
O844        O  0.71019132  0.31652217  0.62724944    -0.37300
O845        O  0.81051204  0.36087525  0.75694777    -0.38200
O846        O  0.80876637  0.36241544  0.68362966    -0.34300
O847        O  0.67680217  0.45189127  0.74822756    -0.35700
O848        O  0.66965111  0.41343525  0.68422666    -0.40000
loop_ 
_geom_bond_atom_site_label_1 
_geom_bond_atom_site_label_2 
_geom_bond_distance 
_geom_bond_site_symmetry_2 
_ccdc_geom_bond_type 
O1          Cr19   2.020       .  S
O1            C9   1.271       .  A
O2          Cr19   1.959       .  S
O2            C3   1.254       .  A
C3            O4   1.269       .  A
C3          C713   1.466       .  S
O4          Cr20   2.028       .  S
O5          Cr20   1.985       .  S
O5            C6   1.261       .  A
C6            O7   1.265       .  A
C6          C834   1.491       .  S
O7          Cr21   2.009       .  S
O8          Cr21   1.964       .  S
O8            C9   1.260       .  A
C9          C750   1.488       .  S
O10         Cr19   1.992       .  S
O10          C18   1.261       .  A
O11         Cr19   2.032       .  S
O11          C12   1.271       .  A
C12          O13   1.255       .  A
C12         C797   1.496       .  S
O13         Cr20   1.962       .  S
O14         Cr20   2.017       .  S
O14          C15   1.272       .  A
C15          O16   1.262       .  A
C15         C769   1.482       .  S
O16         Cr21   1.965       .  S
O17         Cr21   2.015       .  S
O17          C18   1.267       .  A
C18         C685   1.485       .  S
Cr19         O22   1.765       .  S
Cr20         O22   1.765       .  S
Cr21         O22   1.763       .  S
O23         Cr41   1.975       .  S
O23          C31   1.260       .  A
O24         Cr41   2.011       .  S
O24          C25   1.266       .  A
C25          O26   1.259       .  A
C25         C601   1.487       .  S
O26         Cr42   1.982       .  S
O27         Cr42   2.034       .  S
O27          C28   1.272       .  A
C28          O29   1.254       .  A
C28         C722   1.486       .  S
O29         Cr43   1.948       .  S
O30         Cr43   2.021       .  S
O30          C31   1.270       .  A
C31         C666   1.491       .  S
O32         Cr41   2.017       .  S
O32          C40   1.267       .  A
O33         Cr41   1.969       .  S
O33          C34   1.263       .  A
C34          O35   1.272       .  A
C34         C629   1.480       .  S
O35         Cr42   2.022       .  S
O36         Cr42   1.970       .  S
O36          C37   1.256       .  A
C37          O38   1.269       .  A
C37         C573   1.487       .  S
O38         Cr43   2.024       .  S
O39         Cr43   1.977       .  S
O39          C40   1.260       .  A
C40         C545   1.492       .  S
Cr41         O44   1.764       .  S
Cr42         O44   1.769       .  S
Cr43         O44   1.767       .  S
O45         Cr63   2.016       .  S
O45          C53   1.270       .  A
O46         Cr63   1.954       .  S
O46          C47   1.255       .  A
C47          O48   1.271       .  A
C47         C526   1.486       .  S
O48         Cr64   2.036       .  S
O49         Cr64   1.987       .  S
O49          C50   1.260   1_545  A
C50          O51   1.266       .  A
C50         C806   1.485       .  S
O51         Cr65   2.010   1_565  S
O52         Cr65   1.971   1_565  S
O52          C53   1.262   1_565  A
C53         C638   1.488   1_545  S
O54         Cr63   1.982       .  S
O54          C62   1.261       .  A
O55         Cr63   2.032       .  S
O55          C56   1.269       .  A
C56          O57   1.257       .  A
C56         C825   1.494       .  S
O57         Cr64   1.963       .  S
O58         Cr64   2.031       .  S
O58          C59   1.273       .  A
C59          O60   1.263       .  A
C59         C657   1.482       .  S
O60         Cr65   1.971       .  S
O61         Cr65   2.013       .  S
O61          C62   1.267       .  A
C62         C489   1.490       .  S
Cr63         O66   1.768       .  S
Cr64         O66   1.764       .  S
Cr65         O66   1.763       .  S
O67         Cr85   1.967       .  S
O67          C75   1.260       .  A
O68         Cr85   2.001       .  S
O68          C69   1.262       .  A
C69          O70   1.261       .  A
C69         C582   1.493       .  S
O70         Cr86   1.992       .  S
O71         Cr86   2.040       .  S
O71          C72   1.272       .  A
C72          O73   1.255       .  A
C72         C517   1.489       .  S
O73         Cr87   1.952       .  S
O74         Cr87   2.015       .  S
O74          C75   1.270       .  A
C75         C778   1.485       .  S
O76         Cr85   2.008       .  S
O76          C84   1.265       .  A
O77         Cr85   1.958       .  S
O77          C78   1.261       .  A
C78          O79   1.276       .  A
C78         C741   1.487       .  S
O79         Cr86   2.031       .  S
O80         Cr86   1.966       .  S
O80          C81   1.257       .  A
C81          O82   1.269       .  A
C81         C610   1.491       .  S
O82         Cr87   2.028       .  S
O83         Cr87   1.988       .  S
O83          C84   1.263       .  A
C84         C470   1.495       .  S
Cr85         O88   1.763       .  S
Cr86         O88   1.768       .  S
Cr87         O88   1.766       .  S
O89        Cr107   2.026       .  S
O89          C97   1.273       .  A
O90        Cr107   1.956       .  S
O90          C91   1.256       .  A
C91          O92   1.274       .  A
C91         C321   1.491       .  S
O92        Cr108   2.045       .  S
O93        Cr108   1.990       .  S
O93          C94   1.262       .  A
C94          O95   1.266       .  A
C94         C433   1.497       .  S
O95        Cr109   2.009       .  S
O96        Cr109   1.954       .  S
O96          C97   1.257       .  A
C97         C358   1.488       .  S
O98        Cr107   1.986       .  S
O98         C106   1.260       .  A
O99        Cr107   2.028       .  S
O99         C100   1.270       .  A
C100        O101   1.256       .  A
C100        C405   1.492       .  S
O101       Cr108   1.962       .  S
O102       Cr108   2.028       .  S
O102        C103   1.274       .  A
C103        O104   1.260       .  A
C103        C386   1.482       .  S
O104       Cr109   1.958       .  S
O105       Cr109   2.011       .  S
O105        C106   1.266       .  A
C106        C694   1.495       .  S
Cr107       O110   1.767       .  S
Cr108       O110   1.765       .  S
Cr109       O110   1.761       .  S
O111       Cr129   1.974       .  S
O111        C119   1.262       .  A
O112       Cr129   2.007       .  S
O112        C113   1.263       .  A
C113        O114   1.259       .  A
C113        C246   1.493       .  S
O114       Cr130   1.982       .  S
O115       Cr130   2.050       .  S
O115        C116   1.276       .  A
C116        O117   1.254       .  A
C116        C330   1.495       .  S
O117       Cr131   1.950       .  S
O118       Cr131   2.012       .  S
O118        C119   1.270       .  A
C119        C302   1.476       .  S
O120       Cr129   2.007       .  S
O120        C128   1.267       .  A
O121       Cr129   1.957       .  S
O121        C122   1.261       .  A
C122        O123   1.277       .  A
C122        C265   1.488       .  S
O123       Cr130   2.037       .  S
O124       Cr130   1.963       .  S
O124        C125   1.254       .  A
C125        O126   1.267       .  A
C125        C218   1.483       .  S
O126       Cr131   2.025       .  S
O127       Cr131   1.988       .  S
O127        C128   1.262       .  A
C128        C554   1.489       .  S
Cr129       O132   1.765       .  S
Cr130       O132   1.767       .  S
Cr131       O132   1.766       .  S
O133       Cr151   1.951       .  S
O133        C141   1.255       .  A
O134       Cr151   2.011       .  S
O134        C135   1.266       .  A
C135        O136   1.259       .  A
C135        C209   1.486       .  S
O136       Cr152   1.981       .  S
O137       Cr152   2.051       .  S
O137        C138   1.275       .  A
C138        O139   1.252       .  A
C138        C181   1.494       .  S
O139       Cr153   1.942       .  S
O140       Cr153   2.025       .  S
O140        C141   1.272       .  A
C141        C377   1.486       .  S
O142       Cr151   2.015       .  S
O142        C150   1.267       .  A
O143       Cr151   1.947       .  S
O143        C144   1.258       .  A
C144        O145   1.276       .  A
C144        C349   1.485       .  S
O145       Cr152   2.041       .  S
O146       Cr152   1.963       .  S
O146        C147   1.256       .  A
C147        O148   1.270       .  A
C147        C237   1.492       .  S
O148       Cr153   2.029       .  S
O149       Cr153   1.976       .  S
O149        C150   1.259       .  A
C150        C461   1.483       .  S
Cr151       O154   1.762       .  S
Cr152       O154   1.767       .  S
Cr153       O154   1.765       .  S
O155       Cr173   2.015       .  S
O155        C163   1.269   1_545  A
O156       Cr173   1.962       .  S
O156        C157   1.255       .  A
C157        O158   1.269       .  A
C157        C190   1.473       .  S
O158       Cr174   2.030       .  S
O159       Cr174   1.981       .  S
O159        C160   1.259   1_545  A
C160        O161   1.263       .  A
C160        C414   1.482       .  S
O161       Cr175   2.003       .  S
O162       Cr175   1.970       .  S
O162        C163   1.260       .  A
C163        C274   1.488       .  S
O164       Cr173   1.985       .  S
O164        C172   1.263       .  A
O165       Cr173   2.036       .  S
O165        C166   1.272       .  A
C166        O167   1.257       .  A
C166        C442   1.498       .  S
O167       Cr174   1.964       .  S
O168       Cr174   2.026       .  S
O168        C169   1.274       .  A
C169        O170   1.261       .  A
C169        C293   1.487       .  S
O170       Cr175   1.966   1_545  S
O171       Cr175   2.007   1_545  S
O171        C172   1.266       .  A
C172        C498   1.484       .  S
Cr173       O176   1.767       .  S
Cr174       O176   1.765       .  S
Cr175       O176   1.765   1_565  S
C177        C178   1.399       .  A
C177        C182   1.393       .  A
C177        H187   1.082       .  S
C178        C183   1.496       .  S
C178        C179   1.418       .  A
C179        C180   1.411       .  A
C179        N184   1.433       .  S
C180        C181   1.407       .  A
C180        H185   1.082       .  S
C181        C182   1.420       .  A
C182        N186   1.430       .  S
C183        C188   1.420       .  A
C183        C192   1.407       .  A
N184        O199   1.262       .  A
N184        O200   1.262       .  A
N186        O197   1.262       .  A
N186        O198   1.261       .  A
C188        C189   1.403       .  A
C188        N193   1.436       .  S
C189        C190   1.399       .  A
C189        H194   1.083       .  S
C190        C191   1.410       .  A
C191        C192   1.404       .  A
C191        N195   1.433       .  S
C192        H196   1.081       .  S
N193        O203   1.262       .  A
N193        O204   1.263       .  A
N195        O201   1.263       .  A
N195        O202   1.261       .  A
C205        C206   1.401       .  A
C205        C210   1.404       .  A
C205        H215   1.083       .  S
C206        C211   1.481       .  S
C206        C207   1.409       .  A
C207        C208   1.401       .  A
C207        N212   1.430       .  S
C208        C209   1.405       .  A
C208        H213   1.083       .  S
C209        C210   1.415       .  A
C210        N214   1.429       .  S
C211        C216   1.407       .  A
C211        C220   1.401       .  A
N212        O227   1.262       .  A
N212        O228   1.262       .  A
N214        O225   1.262       .  A
N214        O226   1.262       .  A
C216        C217   1.403       .  A
C216        N221   1.430       .  S
C217        C218   1.408       .  A
C217        H222   1.083       .  S
C218        C219   1.414       .  A
C219        C220   1.402       .  A
C219        N223   1.430       .  S
C220        H224   1.083       .  S
N221        O231   1.262       .  A
N221        O232   1.262       .  A
N223        O229   1.262       .  A
N223        O230   1.262       .  A
C233        C234   1.398       .  A
C233        C238   1.400       .  A
C233        H243   1.083       .  S
C234        C239   1.480       .  S
C234        C235   1.407       .  A
C235        C236   1.405       .  A
C235        N240   1.429       .  S
C236        C237   1.409       .  A
C236        H241   1.083       .  S
C237        C238   1.419       .  A
C238        N242   1.430       .  S
C239        C244   1.405       .  A
C239        C248   1.399       .  A
N240        O255   1.262       .  A
N240        O256   1.262       .  A
N242        O253   1.262       .  A
N242        O254   1.262       .  A
C244        C245   1.405   1_545  A
C244        N249   1.428   1_545  S
C245        C246   1.411       .  A
C245        H250   1.082       .  S
C246        C247   1.419   1_565  A
C247        C248   1.399       .  A
C247        N251   1.430       .  S
C248        H252   1.083       .  S
N249        O259   1.261       .  A
N249        O260   1.262       .  A
N251        O257   1.262       .  A
N251        O258   1.262       .  A
C261        C262   1.398       .  A
C261        C266   1.399       .  A
C261        H271   1.081       .  S
C262        C267   1.479       .  S
C262        C263   1.410       .  A
C263        C264   1.405       .  A
C263        N268   1.432       .  S
C264        C265   1.407       .  A
C264        H269   1.080       .  S
C265        C266   1.419       .  A
C266        N270   1.432       .  S
C267        C272   1.407       .  A
C267        C276   1.400       .  A
N268        O283   1.261       .  A
N268        O284   1.262       .  A
N270        O281   1.262       .  A
N270        O282   1.262       .  A
C272        C273   1.402       .  A
C272        N277   1.432       .  S
C273        C274   1.410       .  A
C273        H278   1.082       .  S
C274        C275   1.415   1_565  A
C275        C276   1.399   1_545  A
C275        N279   1.429       .  S
C276        H280   1.083   1_565  S
N277        O287   1.262       .  A
N277        O288   1.262       .  A
N279        O285   1.262       .  A
N279        O286   1.262       .  A
C289        C290   1.399       .  A
C289        C294   1.401   1_565  A
C289        H299   1.083       .  S
C290        C295   1.478   1_556  S
C290        C291   1.409       .  A
C291        C292   1.403   1_565  A
C291        N296   1.434       .  S
C292        C293   1.407       .  A
C292        H297   1.082       .  S
C293        C294   1.418       .  A
C294        N298   1.433       .  S
C295        C300   1.408       .  A
C295        C304   1.402       .  A
N296        O311   1.262   1_565  A
N296        O312   1.262       .  A
N298        O309   1.262   1_545  A
N298        O310   1.262       .  A
C300        C301   1.398       .  A
C300        N305   1.431   1_554  S
C301        C302   1.404       .  A
C301        H306   1.082       .  S
C302        C303   1.412       .  A
C303        C304   1.404       .  A
C303        N307   1.431   1_565  S
C304        H308   1.083   1_565  S
N305        O315   1.262       .  A
N305        O316   1.262       .  A
N307        O313   1.262       .  A
N307        O314   1.262       .  A
C317        C318   1.411       .  A
C317        C322   1.407       .  A
C317        H327   1.081       .  S
C318        C323   1.499   1_556  S
C318        C319   1.412       .  A
C319        C320   1.402       .  A
C319        N324   1.433   1_556  S
C320        C321   1.408       .  A
C320        H325   1.082       .  S
C321        C322   1.411       .  A
C322        N326   1.429       .  S
C323        C328   1.410       .  A
C323        C332   1.412       .  A
N324        O339   1.262       .  A
N324        O340   1.262       .  A
N326        O337   1.262       .  A
N326        O338   1.261       .  A
C328        C329   1.400       .  A
C328        N333   1.434   1_554  S
C329        C330   1.411       .  A
C329        H334   1.081       .  S
C330        C331   1.410       .  A
C331        C332   1.410       .  A
C331        N335   1.430       .  S
C332        H336   1.081       .  S
N333        O343   1.262       .  A
N333        O344   1.262       .  A
N335        O341   1.262       .  A
N335        O342   1.262       .  A
C345        C346   1.404       .  A
C345        C350   1.403       .  A
C345        H355   1.083       .  S
C346        C351   1.479       .  S
C346        C347   1.408       .  A
C347        C348   1.398       .  A
C347        N352   1.436       .  S
C348        C349   1.409       .  A
C348        H353   1.083       .  S
C349        C350   1.412       .  A
C350        N354   1.428       .  S
C351        C356   1.414       .  A
C351        C360   1.397   1_554  A
N352        O367   1.262       .  A
N352        O368   1.263       .  A
N354        O365   1.262       .  A
N354        O366   1.262       .  A
C356        C357   1.404   1_554  A
C356        N361   1.437       .  S
C357        C358   1.406       .  A
C357        H362   1.082       .  S
C358        C359   1.419       .  A
C359        C360   1.397       .  A
C359        N363   1.430       .  S
C360        H364   1.083       .  S
N361        O371   1.263       .  A
N361        O372   1.262       .  A
N363        O369   1.262       .  A
N363        O370   1.262       .  A
C373        C374   1.399       .  A
C373        C378   1.396       .  A
C373        H383   1.082       .  S
C374        C379   1.483       .  S
C374        C375   1.411       .  A
C375        C376   1.403       .  A
C375        N380   1.431       .  S
C376        C377   1.406       .  A
C376        H381   1.081       .  S
C377        C378   1.420       .  A
C378        N382   1.430       .  S
C379        C384   1.412       .  A
C379        C388   1.401       .  A
N380        O395   1.262       .  A
N380        O396   1.262       .  A
N382        O393   1.262       .  A
N382        O394   1.262       .  A
C384        C385   1.402       .  A
C384        N389   1.432       .  S
C385        C386   1.404       .  A
C385        H390   1.082       .  S
C386        C387   1.415       .  A
C387        C388   1.399       .  A
C387        N391   1.432       .  S
C388        H392   1.082       .  S
N389        O399   1.262       .  A
N389        O400   1.262       .  A
N391        O397   1.262       .  A
N391        O398   1.262       .  A
C401        C402   1.402       .  A
C401        C406   1.404       .  A
C401        H411   1.083       .  S
C402        C407   1.476       .  S
C402        C403   1.405       .  A
C403        C404   1.399       .  A
C403        N408   1.433       .  S
C404        C405   1.412       .  A
C404        H409   1.083       .  S
C405        C406   1.415       .  A
C406        N410   1.431       .  S
C407        C412   1.406       .  A
C407        C416   1.398       .  A
N408        O423   1.262       .  A
N408        O424   1.262       .  A
N410        O421   1.262       .  A
N410        O422   1.262       .  A
C412        C413   1.403       .  A
C412        N417   1.428       .  S
C413        C414   1.407       .  A
C413        H418   1.082       .  S
C414        C415   1.416       .  A
C415        C416   1.397       .  A
C415        N419   1.430       .  S
C416        H420   1.083       .  S
N417        O427   1.262       .  A
N417        O428   1.262       .  A
N419        O425   1.262       .  A
N419        O426   1.262       .  A
C429        C430   1.403       .  A
C429        C434   1.409       .  A
C429        H439   1.082       .  S
C430        C435   1.487       .  S
C430        C431   1.407       .  A
C431        C432   1.400       .  A
C431        N436   1.432       .  S
C432        C433   1.409       .  A
C432        H437   1.082       .  S
C433        C434   1.418       .  A
C434        N438   1.430       .  S
C435        C440   1.412       .  A
C435        C444   1.400       .  A
N436        O451   1.262       .  A
N436        O452   1.262       .  A
N438        O449   1.262       .  A
N438        O450   1.262       .  A
C440        C441   1.409       .  A
C440        N445   1.435       .  S
C441        C442   1.409       .  A
C441        H446   1.082       .  S
C442        C443   1.420       .  A
C443        C444   1.403       .  A
C443        N447   1.433       .  S
C444        H448   1.083       .  S
N445        O455   1.262       .  A
N445        O456   1.262       .  A
N447        O453   1.262       .  A
N447        O454   1.262       .  A
C457        C458   1.405       .  A
C457        C462   1.405       .  A
C457        H467   1.081       .  S
C458        C463   1.493   1_455  S
C458        C459   1.414       .  A
C459        C460   1.403       .  A
C459        N464   1.435       .  S
C460        C461   1.403       .  A
C460        H465   1.082       .  S
C461        C462   1.414       .  A
C462        N466   1.432       .  S
C463        C468   1.412       .  A
C463        C472   1.402       .  A
N464        O479   1.262       .  A
N464        O480   1.263       .  A
N466        O477   1.262       .  A
N466        O478   1.262       .  A
C468        C469   1.408       .  A
C468        N473   1.432       .  S
C469        C470   1.410       .  A
C469        H474   1.081       .  S
C470        C471   1.419       .  A
C471        C472   1.399       .  A
C471        N475   1.432       .  S
C472        H476   1.082       .  S
N473        O483   1.262       .  A
N473        O484   1.262       .  A
N475        O481   1.262       .  A
N475        O482   1.262       .  A
C485        C486   1.404       .  A
C485        C490   1.403       .  A
C485        H495   1.083       .  S
C486        C491   1.491       .  S
C486        C487   1.416       .  A
C487        C488   1.405       .  A
C487        N492   1.438   1_545  S
C488        C489   1.406       .  A
C488        H493   1.083   1_545  S
C489        C490   1.414       .  A
C490        N494   1.429       .  S
C491        C496   1.416       .  A
C491        C500   1.405       .  A
N492        O507   1.262       .  A
N492        O508   1.263       .  A
N494        O505   1.262       .  A
N494        O506   1.262       .  A
C496        C497   1.404       .  A
C496        N501   1.438   1_545  S
C497        C498   1.405       .  A
C497        H502   1.081       .  S
C498        C499   1.411       .  A
C499        C500   1.404       .  A
C499        N503   1.430       .  S
C500        H504   1.082       .  S
N501        O511   1.263   1_565  A
N501        O512   1.263       .  A
N503        O509   1.262       .  A
N503        O510   1.262       .  A
C513        C514   1.411       .  A
C513        C518   1.409       .  A
C513        H523   1.080       .  S
C514        C519   1.492   1_554  S
C514        C515   1.410       .  A
C515        C516   1.397       .  A
C515        N520   1.436   1_554  S
C516        C517   1.409       .  A
C516        H521   1.081       .  S
C517        C518   1.411       .  A
C518        N522   1.431       .  S
C519        C524   1.410       .  A
C519        C528   1.409       .  A
N520        O535   1.262       .  A
N520        O536   1.263       .  A
N522        O533   1.262       .  A
N522        O534   1.262       .  A
C524        C525   1.401       .  A
C524        N529   1.433   1_556  S
C525        C526   1.409       .  A
C525        H530   1.080       .  S
C526        C527   1.412       .  A
C527        C528   1.405       .  A
C527        N531   1.431       .  S
C528        H532   1.080       .  S
N529        O539   1.262       .  A
N529        O540   1.262       .  A
N531        O537   1.262       .  A
N531        O538   1.262       .  A
C541        C542   1.406       .  A
C541        C546   1.401       .  A
C541        H551   1.081       .  S
C542        C547   1.495       .  S
C542        C543   1.412       .  A
C543        C544   1.406       .  A
C543        N548   1.433       .  S
C544        C545   1.409       .  A
C544        H549   1.081       .  S
C545        C546   1.415       .  A
C546        N550   1.432       .  S
C547        C552   1.414       .  A
C547        C556   1.407       .  A
N548        O563   1.262       .  A
N548        O564   1.262       .  A
N550        O561   1.262       .  A
N550        O562   1.262       .  A
C552        C553   1.402       .  A
C552        N557   1.436       .  S
C553        C554   1.406       .  A
C553        H558   1.081       .  S
C554        C555   1.412       .  A
C555        C556   1.405       .  A
C555        N559   1.429       .  S
C556        H560   1.080       .  S
N557        O567   1.262       .  A
N557        O568   1.263       .  A
N559        O565   1.262       .  A
N559        O566   1.262       .  A
C569        C570   1.404       .  A
C569        C574   1.405       .  A
C569        H579   1.081       .  S
C570        C575   1.491       .  S
C570        C571   1.414       .  A
C571        C572   1.404       .  A
C571        N576   1.434       .  S
C572        C573   1.404       .  A
C572        H577   1.082       .  S
C573        C574   1.415       .  A
C574        N578   1.432       .  S
C575        C580   1.411       .  A
C575        C584   1.401       .  A
N576        O591   1.262       .  A
N576        O592   1.262       .  A
N578        O589   1.262       .  A
N578        O590   1.262       .  A
C580        C581   1.408       .  A
C580        N585   1.430       .  S
C581        C582   1.409       .  A
C581        H586   1.082       .  S
C582        C583   1.417       .  A
C583        C584   1.397       .  A
C583        N587   1.430       .  S
C584        H588   1.083       .  S
N585        O595   1.262       .  A
N585        O596   1.262       .  A
N587        O593   1.262       .  A
N587        O594   1.262       .  A
C597        C598   1.403       .  A
C597        C602   1.406   1_545  A
C597        H607   1.083   1_545  S
C598        C603   1.487       .  S
C598        C599   1.414       .  A
C599        C600   1.403       .  A
C599        N604   1.436       .  S
C600        C601   1.404   1_545  A
C600        H605   1.083       .  S
C601        C602   1.415       .  A
C602        N606   1.430       .  S
C603        C608   1.410       .  A
C603        C612   1.403       .  A
N604        O619   1.263       .  A
N604        O620   1.262       .  A
N606        O617   1.262       .  A
N606        O618   1.262       .  A
C608        C609   1.404       .  A
C608        N613   1.436       .  S
C609        C610   1.408       .  A
C609        H614   1.083       .  S
C610        C611   1.415       .  A
C611        C612   1.405       .  A
C611        N615   1.430       .  S
C612        H616   1.083       .  S
N613        O623   1.262       .  A
N613        O624   1.262       .  A
N615        O621   1.262       .  A
N615        O622   1.262       .  A
C625        C626   1.399       .  A
C625        C630   1.402       .  A
C625        H635   1.083       .  S
C626        C631   1.475       .  S
C626        C627   1.407       .  A
C627        C628   1.401       .  A
C627        N632   1.429       .  S
C628        C629   1.406       .  A
C628        H633   1.083       .  S
C629        C630   1.416       .  A
C630        N634   1.434       .  S
C631        C636   1.405   1_554  A
C631        C640   1.399   1_554  A
N632        O647   1.262       .  A
N632        O648   1.262       .  A
N634        O645   1.262       .  A
N634        O646   1.262       .  A
C636        C637   1.402       .  A
C636        N641   1.431       .  S
C637        C638   1.410       .  A
C637        H642   1.082       .  S
C638        C639   1.416   1_565  A
C639        C640   1.400   1_545  A
C639        N643   1.429       .  S
C640        H644   1.083   1_566  S
N641        O651   1.262       .  A
N641        O652   1.262       .  A
N643        O649   1.262       .  A
N643        O650   1.262       .  A
C653        C654   1.404   1_545  A
C653        C658   1.404       .  A
C653        H663   1.082       .  S
C654        C659   1.488       .  S
C654        C655   1.410       .  A
C655        C656   1.403   1_565  A
C655        N660   1.430       .  S
C656        C657   1.405       .  A
C656        H661   1.082   1_545  S
C657        C658   1.414       .  A
C658        N662   1.434       .  S
C659        C664   1.410       .  A
C659        C668   1.402       .  A
N660        O675   1.262       .  A
N660        O676   1.262       .  A
N662        O673   1.262       .  A
N662        O674   1.263       .  A
C664        C665   1.404       .  A
C664        N669   1.431       .  S
C665        C666   1.407       .  A
C665        H670   1.082       .  S
C666        C667   1.418       .  A
C667        C668   1.402       .  A
C667        N671   1.430       .  S
C668        H672   1.082   1_565  S
N669        O679   1.262       .  A
N669        O680   1.262       .  A
N671        O677   1.262   1_565  A
N671        O678   1.262       .  A
C681        C682   1.405       .  A
C681        C686   1.401       .  A
C681        H691   1.082       .  S
C682        C687   1.497   1_655  S
C682        C683   1.416       .  A
C683        C684   1.409       .  A
C683        N688   1.433       .  S
C684        C685   1.405       .  A
C684        H689   1.082       .  S
C685        C686   1.413       .  A
C686        N690   1.434       .  S
C687        C692   1.414       .  A
C687        C696   1.407       .  A
N688        O703   1.262       .  A
N688        O704   1.262       .  A
N690        O701   1.262       .  A
N690        O702   1.262       .  A
C692        C693   1.402       .  A
C692        N697   1.435       .  S
C693        C694   1.407       .  A
C693        H698   1.082       .  S
C694        C695   1.416       .  A
C695        C696   1.407       .  A
C695        N699   1.429       .  S
C696        H700   1.082       .  S
N697        O707   1.262       .  A
N697        O708   1.262   1_455  A
N699        O705   1.262       .  A
N699        O706   1.262       .  A
C709        C710   1.406       .  A
C709        C714   1.402       .  A
C709        H719   1.081       .  S
C710        C715   1.486       .  S
C710        C711   1.411       .  A
C711        C712   1.400       .  A
C711        N716   1.430       .  S
C712        C713   1.402       .  A
C712        H717   1.082       .  S
C713        C714   1.407       .  A
C714        N718   1.429       .  S
C715        C720   1.413       .  A
C715        C724   1.400       .  A
N716        O731   1.261       .  A
N716        O732   1.262       .  A
N718        O729   1.262       .  A
N718        O730   1.262       .  A
C720        C721   1.406       .  A
C720        N725   1.432       .  S
C721        C722   1.406       .  A
C721        H726   1.081       .  S
C722        C723   1.418       .  A
C723        C724   1.396       .  A
C723        N727   1.432       .  S
C724        H728   1.081       .  S
N725        O735   1.262       .  A
N725        O736   1.262       .  A
N727        O733   1.262       .  A
N727        O734   1.262       .  A
C737        C738   1.398       .  A
C737        C742   1.399       .  A
C737        H747   1.084       .  S
C738        C743   1.479       .  S
C738        C739   1.412       .  A
C739        C740   1.405       .  A
C739        N744   1.435       .  S
C740        C741   1.407       .  A
C740        H745   1.083       .  S
C741        C742   1.419       .  A
C742        N746   1.435       .  S
C743        C748   1.408       .  A
C743        C752   1.401       .  A
N744        O759   1.262       .  A
N744        O760   1.262       .  A
N746        O757   1.263       .  A
N746        O758   1.262       .  A
C748        C749   1.402       .  A
C748        N753   1.433       .  S
C749        C750   1.410       .  A
C749        H754   1.082       .  S
C750        C751   1.414       .  A
C751        C752   1.399       .  A
C751        N755   1.428       .  S
C752        H756   1.083       .  S
N753        O763   1.262       .  A
N753        O764   1.262       .  A
N755        O761   1.262       .  A
N755        O762   1.262       .  A
C765        C766   1.403       .  A
C765        C770   1.399       .  A
C765        H775   1.082       .  S
C766        C771   1.483       .  S
C766        C767   1.411       .  A
C767        C768   1.400       .  A
C767        N772   1.433       .  S
C768        C769   1.405       .  A
C768        H773   1.082       .  S
C769        C770   1.414       .  A
C770        N774   1.432       .  S
C771        C776   1.411   1_556  A
C771        C780   1.402   1_556  A
N772        O787   1.262       .  A
N772        O788   1.262       .  A
N774        O785   1.262       .  A
N774        O786   1.262       .  A
C776        C777   1.400       .  A
C776        N781   1.433   1_554  S
C777        C778   1.406       .  A
C777        H782   1.082       .  S
C778        C779   1.417       .  A
C779        C780   1.399       .  A
C779        N783   1.430       .  S
C780        H784   1.082       .  S
N781        O791   1.262       .  A
N781        O792   1.262       .  A
N783        O789   1.262       .  A
N783        O790   1.262       .  A
C793        C794   1.399       .  A
C793        C798   1.400       .  A
C793        H803   1.084       .  S
C794        C799   1.487       .  S
C794        C795   1.411       .  A
C795        C796   1.408       .  A
C795        N800   1.433       .  S
C796        C797   1.408       .  A
C796        H801   1.083       .  S
C797        C798   1.421       .  A
C798        N802   1.430       .  S
C799        C804   1.414       .  A
C799        C808   1.406       .  A
N800        O815   1.262       .  A
N800        O816   1.262       .  A
N802        O813   1.262       .  A
N802        O814   1.262       .  A
C804        C805   1.401       .  A
C804        N809   1.437       .  S
C805        C806   1.404       .  A
C805        H810   1.083       .  S
C806        C807   1.412       .  A
C807        C808   1.408       .  A
C807        N811   1.430       .  S
C808        H812   1.083       .  S
N809        O819   1.262       .  A
N809        O820   1.262       .  A
N811        O817   1.262       .  A
N811        O818   1.262   1_565  A
C821        C822   1.406       .  A
C821        C826   1.408       .  A
C821        H831   1.082       .  S
C822        C827   1.488       .  S
C822        C823   1.408       .  A
C823        C824   1.399       .  A
C823        N828   1.433       .  S
C824        C825   1.409       .  A
C824        H829   1.082       .  S
C825        C826   1.416       .  A
C826        N830   1.430       .  S
C827        C832   1.408       .  A
C827        C836   1.403       .  A
N828        O843   1.262       .  A
N828        O844   1.262       .  A
N830        O841   1.262       .  A
N830        O842   1.262       .  A
C832        C833   1.407       .  A
C832        N837   1.429       .  S
C833        C834   1.409       .  A
C833        H838   1.082       .  S
C834        C835   1.415       .  A
C835        C836   1.400       .  A
C835        N839   1.429       .  S
C836        H840   1.082       .  S
N837        O847   1.262       .  A
N837        O848   1.262       .  A
N839        O845   1.262       .  A
N839        O846   1.262       .  A
