geometry optimzed in LAMMPS
_audit_creation_date              2020-12-01 
_audit_creation_method            'lammps2cif' 
_symmetry_space_group_name_H-M    'P1' 
_symmetry_Int_Tables_number       1 
_symmetry_cell_setting            triclinic 
loop_ 
_symmetry_equiv_pos_as_xyz 
  x,y,z 
_cell_length_a                    35.0678697 
_cell_length_b                    41.10913241545145 
_cell_length_c                    42.164920091817585 
_cell_angle_alpha                 89.99530212207522 
_cell_angle_beta                  89.99162869907403 
_cell_angle_gamma                 90.00347138078135 
loop_ 
_atom_site_label 
_atom_site_type_symbol 
_atom_site_fract_x 
_atom_site_fract_y 
_atom_site_fract_z 
_atom_site_charge 
O1          O  0.79637770  0.37816109  0.35761871    -0.83600
C2          C  0.87317528  0.46689030  0.43561644     0.95800
O3          O  0.88254787  0.43724631  0.43271543    -0.72700
O4          O  0.81949243  0.40687581  0.44266515    -0.76300
Al5        Al  0.85580021  0.40283807  0.41082374     1.49000
C6          C  0.78450316  0.40093803  0.44025069     0.91000
O7          O  0.76190925  0.46020739  0.38650587    -0.82500
O8          O  0.84910341  0.45171390  0.32842682    -0.76100
Al9        Al  0.78278488  0.41961695  0.37289506     1.90100
O10         O  0.80687462  0.49065504  0.36660670    -0.75100
O11         O  0.90313282  0.44846368  0.37133834    -0.75000
O12         O  0.85679832  0.48162286  0.41306313    -0.80600
O13         O  0.89626314  0.39643843  0.38120692    -0.78800
O14         O  0.83007885  0.42909375  0.38481237    -1.15000
O15         O  0.83273534  0.36242472  0.39666704    -0.74200
C16         C  0.80953920  0.35571562  0.37465097     0.96500
C17         C  0.77306369  0.48733931  0.37625530     0.92900
Al18       Al  0.85225780  0.46522782  0.37102576     1.55600
O19         O  0.76769600  0.40234118  0.41364387    -0.78800
C20         C  0.91662735  0.41993141  0.37187014     0.97100
C21         C  0.81907468  0.44295630  0.31421594     0.92000
O22         O  0.78960665  0.43448594  0.32969047    -0.84100
O23         O  0.79695909  0.12262448  0.63273574    -0.83600
C24         C  0.87393736  0.03299909  0.55600273     0.95800
O25         O  0.88341789  0.06265014  0.55858863    -0.72700
O26         O  0.82039528  0.09315226  0.54793143    -0.76300
Al27       Al  0.85655819  0.09735971  0.57994495     1.49000
C28         C  0.78548327  0.09950242  0.55031558     0.91000
O29         O  0.76246181  0.04030419  0.60429173    -0.82500
O30         O  0.84914162  0.04972547  0.66290752    -0.76100
Al31       Al  0.78327716  0.08105321  0.61775064     1.90100
O32         O  0.80712639  0.01006215  0.62495470    -0.75100
O33         O  0.90358908  0.05228445  0.62043270    -0.75000
O34         O  0.85754550  0.01858136  0.57875140    -0.80600
O35         O  0.89666379  0.10410604  0.60968644    -0.78800
O36         O  0.83062228  0.07143155  0.60614639    -1.15000
O37         O  0.83364369  0.13789528  0.59366932    -0.74200
C38         C  0.81063789  0.14488865  0.61572841     0.96500
C39         C  0.77347313  0.01323218  0.61484038     0.92900
Al40       Al  0.85265299  0.03551464  0.62054791     1.55600
O41         O  0.76860913  0.09807099  0.57688439    -0.78800
C42         C  0.91690371  0.08087341  0.61971342     0.97100
C43         C  0.81903526  0.05866232  0.67688978     0.92000
O44         O  0.78956014  0.06658090  0.66117155    -0.84100
O45         O  0.20557919  0.43413915  0.32948440    -0.83600
C46         C  0.12295802  0.46719906  0.43572450     0.95800
O47         O  0.13909414  0.48177437  0.41295044    -0.72700
O48         O  0.18868378  0.49036008  0.36620723    -0.76300
Al49       Al  0.14327123  0.46505571  0.37098150     1.49000
C50         C  0.22247415  0.48706964  0.37590572     0.91000
O51         O  0.22808622  0.40197059  0.41324549    -0.82500
O52         O  0.16267642  0.36245013  0.39695815    -0.76100
Al53       Al  0.21263960  0.41932368  0.37264138     1.90100
O54         O  0.17669913  0.40704393  0.44266393    -0.75100
O55         O  0.09908229  0.39646071  0.38193082    -0.75000
O56         O  0.11358429  0.43752963  0.43308319    -0.80600
O57         O  0.09237668  0.44840991  0.37166004    -0.78800
O58         O  0.16547284  0.42896914  0.38483234    -1.15000
O59         O  0.14603672  0.45121613  0.32845761    -0.74200
C60         C  0.17596067  0.44240145  0.31413048     0.96500
C61         C  0.21157029  0.40070159  0.43997410     0.92900
Al62       Al  0.13995082  0.40294284  0.41116264     1.55600
O63         O  0.23367884  0.45992650  0.38611785    -0.78800
C64         C  0.07879929  0.41991756  0.37239730     0.97100
C65         C  0.18554528  0.35554928  0.37475620     0.92000
O66         O  0.19869238  0.37786212  0.35752899    -0.84100
O67         O  0.20595614  0.06660217  0.66139289    -0.83600
C68         C  0.12172613  0.03336762  0.55618347     0.95800
O69         O  0.13798945  0.01884437  0.57892787    -0.72700
O70         O  0.18832270  0.01005976  0.62516302    -0.76300
Al71       Al  0.14282720  0.03562464  0.62075605     1.49000
C72         C  0.22194150  0.01317190  0.61494206     0.91000
O73         O  0.22696553  0.09804838  0.57713614    -0.82500
O74         O  0.16184052  0.13806302  0.59428619    -0.76100
Al75       Al  0.21231271  0.08106764  0.61799332     1.90100
O76         O  0.17500653  0.09363101  0.54832793    -0.75100
O77         O  0.09882118  0.10423488  0.61020755    -0.75000
O78         O  0.11211840  0.06298226  0.55888667    -0.80600
O79         O  0.09185175  0.05237097  0.62066786    -0.78800
O80         O  0.16489736  0.07158331  0.60645242    -1.15000
O81         O  0.14633786  0.04976938  0.66307080    -0.74200
C82         C  0.17641601  0.05873671  0.67706407     0.96500
C83         C  0.20999813  0.09966930  0.55062861     0.92900
Al84       Al  0.13892032  0.09763003  0.58040295     1.55600
O85         O  0.23296187  0.04026154  0.60444302    -0.78800
C86         C  0.07852805  0.08095710  0.62005630     0.97100
C87         C  0.18508817  0.14500695  0.61617610     0.92000
O88         O  0.19894796  0.12271768  0.63304412    -0.84100
O89         O  0.29635633  0.12805013  0.35799537    -0.83600
C90         C  0.37384270  0.21691001  0.43503894     0.95800
O91         O  0.38314578  0.18722886  0.43236638    -0.72700
O92         O  0.31991425  0.15707073  0.44288975    -0.76300
Al93       Al  0.35608470  0.15273571  0.41090684     1.49000
C94         C  0.28494441  0.15097382  0.44050382     0.91000
O95         O  0.26262654  0.21033344  0.38676383    -0.82500
O96         O  0.34924632  0.20060420  0.32812616    -0.76100
Al97       Al  0.28302222  0.16957797  0.37313127     1.90100
O98         O  0.30739937  0.24042137  0.36602349    -0.75100
O99         O  0.40358017  0.19769329  0.37065766    -0.75000
O100        O  0.35766117  0.23152477  0.41230861    -0.80600
O101        O  0.39620135  0.14586755  0.38122051    -0.78800
O102        O  0.33042337  0.17888723  0.38477009    -1.15000
O103        O  0.33284473  0.11238120  0.39702171    -0.74200
C104        C  0.30973461  0.10564273  0.37496326     0.96500
C105        C  0.27375305  0.23734882  0.37619519     0.92900
Al106      Al  0.35275648  0.21472754  0.37047627     1.55600
O107        O  0.26811088  0.15250877  0.41393187    -0.78800
C108        C  0.41669047  0.16903565  0.37139737     0.97100
C109        C  0.31911613  0.19181212  0.31410481     0.92000
O110        O  0.28950601  0.18412186  0.32976589    -0.84100
O111        O  0.29704173  0.37228359  0.63303259    -0.83600
C112        C  0.37311779  0.28267731  0.55557440     0.95800
O113        O  0.38285010  0.31224793  0.55840512    -0.72700
O114        O  0.32008317  0.34294675  0.54805997    -0.76300
Al115      Al  0.35632102  0.34696887  0.57999215     1.49000
C116        C  0.28517797  0.34923709  0.55046721     0.91000
O117        O  0.26208290  0.29027033  0.60430580    -0.82500
O118        O  0.34913143  0.29865079  0.66263130    -0.76100
Al119      Al  0.28315333  0.33080360  0.61788402     1.90100
O120        O  0.30650540  0.25964074  0.62478411    -0.75100
O121        O  0.40321836  0.30121415  0.61968118    -0.75000
O122        O  0.35655508  0.26813339  0.57816694    -0.80600
O123        O  0.39673808  0.35325717  0.60965399    -0.78800
O124        O  0.33035722  0.32100250  0.60610879    -1.15000
O125        O  0.33344674  0.38768112  0.59387479    -0.74200
C126        C  0.31025699  0.39461308  0.61585992     0.96500
C127        C  0.27284323  0.26313878  0.61484439     0.92900
Al128      Al  0.35217562  0.28479586  0.62013232     1.55600
O129        O  0.26835541  0.34802583  0.57707713    -0.78800
C130        C  0.41694293  0.32966647  0.61901232     0.97100
C131        C  0.31908070  0.30754075  0.67674348     0.92000
O132        O  0.28970055  0.31602830  0.66116434    -0.84100
O133        O  0.70538288  0.18404462  0.32958993    -0.83600
C134        C  0.62177786  0.21694393  0.43507023     0.95800
O135        O  0.63772914  0.23149893  0.41219407    -0.72700
O136        O  0.68762261  0.24032283  0.36571764    -0.76300
Al137      Al  0.64230856  0.21462720  0.37041056     1.49000
C138        C  0.72127413  0.23736238  0.37589830     0.91000
O139        O  0.72716596  0.15256328  0.41372822    -0.82500
O140        O  0.66223417  0.11232181  0.39695403    -0.76100
Al141      Al  0.71206328  0.16956058  0.37295048     1.90100
O142        O  0.67543591  0.15700634  0.44279372    -0.75100
O143        O  0.59880730  0.14585059  0.38142659    -0.75000
O144        O  0.61229626  0.18728723  0.43249552    -0.80600
O145        O  0.59146484  0.19766356  0.37084641    -0.78800
O146        O  0.66469438  0.17882539  0.38470266    -1.15000
O147        O  0.64557063  0.20035802  0.32809945    -0.74200
C148        C  0.67567150  0.19160356  0.31400596     0.96500
C149        C  0.71042113  0.15102744  0.44034130     0.92900
Al150      Al  0.63912215  0.15270669  0.41094427     1.55600
O151        O  0.73247806  0.21037187  0.38647631    -0.78800
C152        C  0.57832569  0.16902090  0.37161087     0.97100
C153        C  0.68531481  0.10560221  0.37485846     0.92000
O154        O  0.69869614  0.12802054  0.35790219    -0.84100
O155        O  0.70618563  0.31613611  0.66168596    -0.83600
C156        C  0.62347313  0.28283251  0.55556991     0.95800
O157        O  0.63994535  0.26827920  0.57817824    -0.72700
O158        O  0.68980956  0.25979670  0.62473934    -0.76300
Al159      Al  0.64410624  0.28480497  0.62019527     1.49000
C160        C  0.72356109  0.26342282  0.61504616     0.91000
O161        O  0.72803266  0.34860748  0.57777305    -0.82500
O162        O  0.66260113  0.38772299  0.59422305    -0.76100
Al163      Al  0.71296898  0.33110841  0.61848139     1.90100
O164        O  0.67655789  0.34309992  0.54853035    -0.75100
O165        O  0.59942260  0.35322994  0.60964244    -0.75000
O166        O  0.61372527  0.31238278  0.55840871    -0.80600
O167        O  0.59302446  0.30118087  0.61971322    -0.78800
O168        O  0.66589650  0.32111608  0.60640913    -1.15000
O169        O  0.64690944  0.29837877  0.66278770    -0.74200
C170        C  0.67677948  0.30736436  0.67708716     0.96500
C171        C  0.71136457  0.34971741  0.55108808     0.92900
Al172      Al  0.64003865  0.34704172  0.58020001     1.55600
O173        O  0.73444294  0.29068984  0.60490325    -0.78800
C174        C  0.57925438  0.32962109  0.61900043     0.97100
C175        C  0.68545753  0.39474166  0.61639362     0.92000
O176        O  0.69860878  0.37247313  0.63367770    -0.84100
O177        O  0.78915362  0.43509083  0.16150151    -0.83600
C178        C  0.87307692  0.46670145  0.05567017     0.95800
O179        O  0.85671937  0.48160628  0.07812402    -0.72700
O180        O  0.80668746  0.49116509  0.12436006    -0.76300
Al181      Al  0.85201539  0.46555713  0.12018999     1.49000
C182        C  0.77297064  0.48789231  0.11448913     0.91000
O183        O  0.76747180  0.40271831  0.07753954    -0.82500
O184        O  0.83258954  0.36266521  0.09510243    -0.76100
Al185      Al  0.78243810  0.42010828  0.11827325     1.90100
O186        O  0.81944686  0.40658181  0.04864470    -0.75100
O187        O  0.89585671  0.39670120  0.11055833    -0.75000
O188        O  0.88251072  0.43710521  0.05876284    -0.80600
O189        O  0.90288698  0.44875473  0.12015688    -0.78800
O190        O  0.82981463  0.42937696  0.10649165    -1.15000
O191        O  0.84866892  0.45227065  0.16279615    -0.74200
C192        C  0.81864781  0.44348915  0.17699169     0.96500
C193        C  0.78437217  0.40088089  0.05099310     0.92900
Al194      Al  0.85563354  0.40289476  0.08073614     1.55600
O195        O  0.76180500  0.46071449  0.10438076    -0.78800
C196        C  0.91623639  0.42017827  0.11987447     0.97100
C197        C  0.80923905  0.35611373  0.11703016     0.92000
O198        O  0.79574811  0.37867042  0.13374623    -0.84100
O199        O  0.78863045  0.06566206  0.82975168    -0.83600
C200        C  0.87277232  0.03189467  0.93501949     0.95800
O201        O  0.85637832  0.01744055  0.91230575    -0.72700
O202        O  0.80599117  0.00926546  0.86603510    -0.76300
Al203      Al  0.85158417  0.03455411  0.87053027     1.49000
C204        C  0.77229055  0.01254254  0.87602852     0.91000
O205        O  0.76738275  0.09738889  0.91393259    -0.82500
O206        O  0.83227301  0.13681091  0.89771698    -0.76100
Al207      Al  0.78224516  0.08023424  0.87314130     1.90100
O208        O  0.81881758  0.09167880  0.94316910    -0.75100
O209        O  0.89570388  0.10314976  0.88176932    -0.75000
O210        O  0.88213719  0.06155184  0.93245941    -0.80600
O211        O  0.90257117  0.05134758  0.87081351    -0.78800
O212        O  0.82951901  0.07045582  0.88490803    -1.15000
O213        O  0.84823562  0.04886151  0.82822347    -0.74200
C214        C  0.81822282  0.05783243  0.81414021     0.96500
C215        C  0.78402125  0.09845894  0.94061260     0.92900
Al216      Al  0.85526948  0.09623570  0.91129910     1.55600
O217        O  0.76130051  0.03960071  0.88660406    -0.78800
C218        C  0.91603705  0.07989365  0.87183925     0.97100
C219        C  0.80945314  0.14393424  0.87555627     0.92000
O220        O  0.79620676  0.12177572  0.85817860    -0.84100
O221        O  0.19857606  0.37848640  0.13376487    -0.83600
C222        C  0.12173279  0.46673803  0.05566683     0.95800
O223        O  0.11219524  0.43714665  0.05871232    -0.72700
O224        O  0.17502520  0.40634483  0.04865634    -0.76300
Al225      Al  0.13882242  0.40279327  0.08072322     1.49000
C226        C  0.21007726  0.40057881  0.05097507     0.91000
O227        O  0.23283137  0.46039491  0.10433424    -0.82500
O228        O  0.14588259  0.45184842  0.16280980    -0.76100
Al229      Al  0.21207713  0.41982131  0.11823611     1.90100
O230        O  0.18814582  0.49086451  0.12461282    -0.75100
O231        O  0.09164548  0.44874610  0.12012732    -0.75000
O232        O  0.13803894  0.48159676  0.07819044    -0.80600
O233        O  0.09853581  0.39669774  0.11050563    -0.78800
O234        O  0.16472798  0.42919586  0.10647518    -1.15000
O235        O  0.16167036  0.36249241  0.09516315    -0.74200
C236        C  0.18499073  0.35593509  0.11711157     0.96500
C237        C  0.22185409  0.48753519  0.11469867     0.92900
Al238      Al  0.14264146  0.46538343  0.12026052     1.55600
O239        O  0.22699716  0.40234106  0.07751174    -0.78800
C240        C  0.07820442  0.42019666  0.11981729     0.97100
C241        C  0.17591005  0.44301243  0.17696260     0.92000
O242        O  0.20545131  0.43481164  0.16143955    -0.84100
O243        O  0.19832466  0.12223563  0.85828362    -0.83600
C244        C  0.12175370  0.03224884  0.93496802     0.95800
O245        O  0.11223763  0.06189457  0.93245025    -0.72700
O246        O  0.17525310  0.09238760  0.94311667    -0.76300
Al247      Al  0.13891875  0.09672784  0.91119975     1.49000
C248        C  0.21009858  0.09897509  0.94065737     0.91000
O249        O  0.23304295  0.04003951  0.88670471    -0.82500
O250        O  0.14627937  0.04952625  0.82818321    -0.76100
Al251      Al  0.21216694  0.08071767  0.87325369     1.90100
O252        O  0.18846471  0.00983066  0.86583425    -0.75100
O253        O  0.09181412  0.05169110  0.87072690    -0.75000
O254        O  0.13810491  0.01787671  0.91217259    -0.80600
O255        O  0.09848765  0.10349824  0.88162869    -0.78800
O256        O  0.16483242  0.07096573  0.88488806    -1.15000
O257        O  0.16179769  0.13736846  0.89751009    -0.74200
C258        C  0.18479717  0.14443936  0.87544424     0.96500
C259        C  0.22212245  0.01304366  0.87592243     0.92900
Al260      Al  0.14286042  0.03506676  0.87042507     1.55600
O261        O  0.22686994  0.09779957  0.91404749    -0.78800
C262        C  0.07823520  0.08018801  0.87172795     0.97100
C263        C  0.17638969  0.05845471  0.81419637     0.92000
O264        O  0.20593449  0.06622783  0.82987691    -0.84100
O265        O  0.28903630  0.18422978  0.16137626    -0.83600
C266        C  0.37254972  0.21800982  0.05589544     0.95800
O267        O  0.35641905  0.23244866  0.07874846    -0.72700
O268        O  0.30649690  0.24068456  0.12528539    -0.76300
Al269      Al  0.35188603  0.21527777  0.12049849     1.49000
C270        C  0.27275397  0.23761369  0.11536439     0.91000
O271        O  0.26723486  0.15291466  0.07719736    -0.82500
O272        O  0.33219884  0.11305206  0.09341729    -0.76100
Al273      Al  0.28233653  0.16986100  0.11799661     1.90100
O274        O  0.31873133  0.15819362  0.04795353    -0.75100
O275        O  0.39574193  0.14663426  0.10909442    -0.75000
O276        O  0.38197646  0.18834419  0.05838050    -0.80600
O277        O  0.40276529  0.19843028  0.11993579    -0.78800
O278        O  0.32962328  0.17945692  0.10614120    -1.15000
O279        O  0.34872781  0.20086810  0.16278116    -0.74200
C280        C  0.31871098  0.19196539  0.17691730     0.96500
C281        C  0.28386595  0.15174134  0.05051749     0.92900
Al282      Al  0.35521310  0.15361625  0.07969048     1.55600
O283        O  0.26157389  0.21063502  0.10473123    -0.78800
C284        C  0.41613256  0.16986176  0.11897426     0.97100
C285        C  0.30936759  0.10602922  0.11561642     0.92000
O286        O  0.29603701  0.12826227  0.13283896    -0.84100
O287        O  0.28868594  0.31585788  0.82943777    -0.83600
C288        C  0.37209914  0.28356632  0.93530987     0.95800
O289        O  0.35558215  0.26882056  0.91283345    -0.72700
O290        O  0.30562043  0.25973795  0.86643770    -0.76300
Al291      Al  0.35119069  0.28496678  0.87077291     1.49000
C292        C  0.27194334  0.26316219  0.87633856     0.91000
O293        O  0.26731177  0.34844894  0.91344205    -0.82500
O294        O  0.33301636  0.38793936  0.89580105    -0.76100
Al295      Al  0.28209070  0.33091416  0.87269420     1.90100
O296        O  0.31929260  0.34425189  0.94227717    -0.75100
O297        O  0.39591472  0.35338113  0.88043026    -0.75000
O298        O  0.38188554  0.31309045  0.93225157    -0.80600
O299        O  0.40226282  0.30126517  0.87095761    -0.78800
O300        O  0.32938382  0.32130287  0.88447384    -1.15000
O301        O  0.34809884  0.29839547  0.82820647    -0.74200
C302        C  0.31815301  0.30730003  0.81397460     0.96500
C303        C  0.28428609  0.35022063  0.93995985     0.92900
Al304      Al  0.35552605  0.34755785  0.91021807     1.55600
O305        O  0.26101881  0.29037765  0.88657135    -0.78800
C306        C  0.41604451  0.32968659  0.87126983     0.97100
C307        C  0.30969371  0.39472091  0.87392913     0.92000
O308        O  0.29581069  0.37230512  0.85724165    -0.84100
O309        O  0.69806437  0.12845052  0.13272923    -0.83600
C310        C  0.62136380  0.21801681  0.05601709     0.95800
O311        O  0.61204500  0.18833184  0.05847130    -0.72700
O312        O  0.67546277  0.15837287  0.04777629    -0.76300
Al313      Al  0.63900091  0.15365677  0.07960562     1.49000
C314        C  0.71031496  0.15182060  0.05034064     0.91000
O315        O  0.73265390  0.21073275  0.10456408    -0.82500
O316        O  0.64561728  0.20081323  0.16278683    -0.76100
Al317      Al  0.71189014  0.16995609  0.11785083     1.90100
O318        O  0.68772770  0.24073945  0.12520345    -0.75100
O319        O  0.59150669  0.19832427  0.12007176    -0.75000
O320        O  0.63761259  0.23244205  0.07881936    -0.80600
O321        O  0.59852303  0.14655210  0.10907741    -0.78800
O322        O  0.66459447  0.17951667  0.10606068    -1.15000
O323        O  0.66218820  0.11311923  0.09318913    -0.74200
C324        C  0.68502848  0.10619006  0.11539909     0.96500
C325        C  0.72146688  0.23770196  0.11523338     0.92900
Al326      Al  0.64232830  0.21526692  0.12052421     1.55600
O327        O  0.72692694  0.15296436  0.07702991    -0.78800
C328        C  0.57813915  0.16975716  0.11904350     0.97100
C329        C  0.67568257  0.19193874  0.17684844     0.92000
O330        O  0.70534116  0.18433079  0.16123357    -0.84100
O331        O  0.69870428  0.37180545  0.85768409    -0.83600
C332        C  0.62171399  0.28332386  0.93549340     0.95800
O333        O  0.61213661  0.31287991  0.93241486    -0.72700
O334        O  0.67484063  0.34387935  0.94268689    -0.76300
Al335      Al  0.63870502  0.34722807  0.91050143     1.49000
C336        C  0.70986213  0.34983987  0.94039508     0.91000
O337        O  0.73308567  0.28978354  0.88714025    -0.82500
O338        O  0.64637479  0.29800689  0.82843634    -0.76100
Al339      Al  0.71222870  0.33038206  0.87318410     1.90100
O340        O  0.68847653  0.25923983  0.86686997    -0.75100
O341        O  0.59198064  0.30105923  0.87103417    -0.75000
O342        O  0.63823113  0.26846889  0.91308131    -0.80600
O343        O  0.59844648  0.35314212  0.88062901    -0.78800
O344        O  0.66485104  0.32088908  0.88482245    -1.15000
O345        O  0.66135842  0.38752334  0.89613031    -0.74200
C346        C  0.68474417  0.39425298  0.87429417     0.96500
C347        C  0.72212290  0.26259250  0.87686179     0.92900
Al348      Al  0.64297040  0.28460414  0.87102913     1.55600
O349        O  0.72688964  0.34791589  0.91391612    -0.78800
C350        C  0.57828099  0.32950604  0.87138189     0.97100
C351        C  0.67645195  0.30684878  0.81434261     0.92000
O352        O  0.70582394  0.31534655  0.82994127    -0.84100
C353        C  0.61253858  0.21709958  0.99726086    -0.15100
C354        C  0.61511026  0.23509673  0.02556504     0.07000
C355        C  0.61593619  0.26919931  0.02389924    -0.15100
C356        C  0.61556792  0.28492100  0.99446122    -0.15100
C357        C  0.61532245  0.26680473  0.96615859     0.07000
C358        C  0.61312628  0.23278495  0.96783537    -0.15100
H359        H  0.61223321  0.19076210  0.99778910     0.11000
H360        H  0.61805884  0.28365282  0.04529907     0.11000
H361        H  0.61765936  0.31120785  0.99382845     0.11000
H362        H  0.61299122  0.21828893  0.94639536     0.11000
C363        C  0.47729606  0.30769267  0.85063355    -0.15100
C364        C  0.45696962  0.33387040  0.86376833     0.07000
C365        C  0.47720775  0.36146566  0.87400771    -0.15100
C366        C  0.51721434  0.36142215  0.87403591    -0.15100
C367        C  0.53738966  0.33378438  0.86381964     0.07000
C368        C  0.51701122  0.30765061  0.85065753    -0.15100
H369        H  0.46253832  0.28623964  0.84214120     0.11000
H370        H  0.46227429  0.38202414  0.88416239     0.11000
H371        H  0.53218718  0.38194620  0.88421244     0.11000
H372        H  0.53171912  0.28616726  0.84218485     0.11000
C373        C  0.47728329  0.19046772  0.14107347    -0.15100
C374        C  0.45691758  0.16502047  0.12669527     0.07000
C375        C  0.47709058  0.13777344  0.11549009    -0.15100
C376        C  0.51712316  0.13773471  0.11551775    -0.15100
C377        C  0.53734066  0.16493777  0.12676024     0.07000
C378        C  0.51699824  0.19042209  0.14111462    -0.15100
H379        H  0.46257054  0.21155683  0.15042957     0.11000
H380        H  0.46211353  0.11771538  0.10446952     0.11000
H381        H  0.53207458  0.11764936  0.10450726     0.11000
H382        H  0.53173831  0.21148264  0.15049837     0.11000
C383        C  0.37897699  0.26915899  0.02373857    -0.15100
C384        C  0.37854045  0.23504207  0.02535883     0.07000
C385        C  0.37970489  0.21705133  0.99699678    -0.15100
C386        C  0.37912861  0.23280216  0.96760182    -0.15100
C387        C  0.37832703  0.26688062  0.96595824     0.07000
C388        C  0.37935611  0.28493312  0.99429908    -0.15100
H389        H  0.37793414  0.28360595  0.04519584     0.11000
H390        H  0.37895321  0.19072076  0.99749774     0.11000
H391        H  0.37821561  0.21832171  0.94616318     0.11000
H392        H  0.37834055  0.31126943  0.99372984     0.11000
C393        C  0.24208185  0.46144035  0.85009603    -0.15100
C394        C  0.24862865  0.48506878  0.87348703     0.07000
C395        C  0.27978440  0.48110312  0.89411886    -0.15100
C396        C  0.30206114  0.45266452  0.89284799    -0.15100
C397        C  0.29393132  0.42811204  0.87051044     0.07000
C398        C  0.26459041  0.43355115  0.84842416    -0.15100
H399        H  0.21883784  0.46416902  0.83338764     0.11000
H400        H  0.28570211  0.99915972  0.91216916     0.11000
H401        H  0.32423075  0.44913678  0.91038766     0.11000
H402        H  0.25741308  0.41530654  0.83089205     0.11000
C403        C  0.19318998  0.20213758  0.89496409    -0.15100
C404        C  0.20054335  0.17786804  0.87215005     0.07000
C405        C  0.22900120  0.18366717  0.84934449    -0.15100
C406        C  0.25133703  0.21169096  0.85062592    -0.15100
C407        C  0.24548386  0.23510736  0.87434726     0.07000
C408        C  0.21526430  0.23072258  0.89584493    -0.15100
H409        H  0.17177582  0.19830526  0.91308531     0.11000
H410        H  0.23559398  0.16563573  0.83143651     0.11000
H411        H  0.27390139  0.21472230  0.83332405     0.11000
H412        H  0.20998022  0.24856108  0.91422873     0.11000
C413        C  0.26497006  0.12711531  0.96599718    -0.15100
C414        C  0.23007145  0.11082843  0.96896215     0.07000
C415        C  0.21215240  0.10923802  0.99877888    -0.15100
C416        C  0.22884674  0.12374471  0.02518627    -0.15100
C417        C  0.26375888  0.14001390  0.02222265     0.07000
C418        C  0.28165159  0.14162880  0.99239444    -0.15100
H419        H  0.27899902  0.12920256  0.94319857     0.11000
H420        H  0.18502424  0.09696782  0.00167650     0.11000
H421        H  0.21484119  0.12164009  0.04799411     0.11000
H422        H  0.30878822  0.15388879  0.98948382     0.11000
C423        C  0.21234842  0.39150985  0.99262184    -0.15100
C424        C  0.23021335  0.38934212  0.02244251     0.07000
C425        C  0.26532000  0.37332910  0.02502923    -0.15100
C426        C  0.28219844  0.35959364  0.99828057    -0.15100
C427        C  0.26428320  0.36168530  0.96847293     0.07000
C428        C  0.22922659  0.37777481  0.96587377    -0.15100
H429        H  0.18511703  0.40365382  0.98997587     0.11000
H430        H  0.27934037  0.37083412  0.04778749     0.11000
H431        H  0.30943298  0.34744311  0.00092989     0.11000
H432        H  0.21520122  0.38026392  0.94311827     0.11000
C433        C  0.11560082  0.46526764  0.99659694    -0.15100
C434        C  0.11554038  0.48333487  0.02494132     0.07000
C435        C  0.11372168  0.01738558  0.02325045    -0.15100
C436        C  0.11325194  0.03311219  0.99381875    -0.15100
C437        C  0.11556735  0.01514515  0.96547697     0.07000
C438        C  0.11609724  0.48102837  0.96714744    -0.15100
H439        H  0.11740677  0.43896742  0.99720139     0.11000
H440        H  0.11375912  0.03187874  0.04469349     0.11000
H441        H  0.11319676  0.05945157  0.99330854     0.11000
H442        H  0.11802356  0.46657996  0.94573257     0.11000
C443        C  0.23178166  0.31806100  0.14174512    -0.15100
C444        C  0.20116828  0.32271672  0.12069665     0.07000
C445        C  0.19191406  0.29746897  0.09944437    -0.15100
C446        C  0.21419858  0.26902846  0.09821468    -0.15100
C447        C  0.24648353  0.26576408  0.11775367     0.07000
C448        C  0.25428745  0.29019414  0.14006522    -0.15100
H449        H  0.23990646  0.33686793  0.15840970     0.11000
H450        H  0.16871865  0.30037587  0.08273769     0.11000
H451        H  0.20728107  0.25035128  0.08103798     0.11000
H452        H  0.27844980  0.28808987  0.15593677     0.11000
C453        C  0.24262220  0.03895116  0.14053286    -0.15100
C454        C  0.24836656  0.01555070  0.11678074     0.07000
C455        C  0.27869555  0.01980700  0.09536169    -0.15100
C456        C  0.30089764  0.04830805  0.09625558    -0.15100
C457        C  0.29357882  0.07262661  0.11901552     0.07000
C458        C  0.26510457  0.06690282  0.14183630    -0.15100
H459        H  0.22002730  0.03597347  0.15782145     0.11000
H460        H  0.28396116  0.50193969  0.07700641     0.11000
H461        H  0.32236810  0.05205105  0.07816174     0.11000
H462        H  0.25858691  0.08495812  0.15973779     0.11000
C463        C  0.97729447  0.05937737  0.84964457    -0.15100
C464        C  0.95688104  0.08470825  0.86419450     0.07000
C465        C  0.97704989  0.11184665  0.87564777    -0.15100
C466        C  0.01707827  0.11192887  0.87560341    -0.15100
C467        C  0.03736216  0.08486970  0.86411207     0.07000
C468        C  0.01704555  0.05945963  0.84959937    -0.15100
H469        H  0.96258711  0.03836460  0.84012331     0.11000
H470        H  0.96206381  0.13179925  0.88685056     0.11000
H471        H  0.03198567  0.13193787  0.88677643     0.11000
H472        H  0.03184033  0.03850646  0.84004935     0.11000
C473        C  0.78162315  0.10851398  0.99878236    -0.15100
C474        C  0.76400536  0.11047062  0.96886724     0.07000
C475        C  0.72946903  0.12729954  0.96577789    -0.15100
C476        C  0.71283907  0.14195333  0.99214893    -0.15100
C477        C  0.73043173  0.13996216  0.02207260     0.07000
C478        C  0.76499239  0.12316898  0.02515429    -0.15100
H479        H  0.80847000  0.09583277  0.00178460     0.11000
H480        H  0.71569772  0.12970021  0.94290229     0.11000
H481        H  0.68598367  0.15462303  0.98914872     0.11000
H482        H  0.77875235  0.12075429  0.04803584     0.11000
C483        C  0.76540187  0.18333348  0.84948893    -0.15100
C484        C  0.79357922  0.17733291  0.87246892     0.07000
C485        C  0.80055762  0.20134406  0.89562606    -0.15100
C486        C  0.77843767  0.22989024  0.89661684    -0.15100
C487        C  0.74853979  0.23450750  0.87487258     0.07000
C488        C  0.74301562  0.21133430  0.85086394    -0.15100
H489        H  0.75909325  0.16548467  0.83133699     0.11000
H490        H  0.82172359  0.19733601  0.91390603     0.11000
H491        H  0.78344544  0.24752206  0.91524036     0.11000
H492        H  0.72069376  0.21455561  0.83338753     0.11000
C493        C  0.72965494  0.43310934  0.84862318    -0.15100
C494        C  0.70045719  0.42764252  0.87083229     0.07000
C495        C  0.69245241  0.45216031  0.89324073    -0.15100
C496        C  0.71474593  0.48058940  0.89445930    -0.15100
C497        C  0.74578066  0.48457234  0.87369622     0.07000
C498        C  0.75218495  0.46098503  0.85024413    -0.15100
H499        H  0.73671259  0.41489197  0.83102844     0.11000
H500        H  0.67038759  0.44860421  0.91087573     0.11000
H501        H  0.70894607  0.99862086  0.91256115     0.11000
H502        H  0.77532567  0.46374336  0.83344239     0.11000
C503        C  0.97721454  0.38842851  0.11609810    -0.15100
C504        C  0.95701767  0.41552266  0.12756179     0.07000
C505        C  0.97734259  0.44097956  0.14198517    -0.15100
C506        C  0.01708407  0.44100334  0.14194547    -0.15100
C507        C  0.03740303  0.41556305  0.12749469     0.07000
C508        C  0.01720273  0.38844687  0.11606737    -0.15100
H509        H  0.96226929  0.36844106  0.10491263     0.11000
H510        H  0.96255855  0.46198491  0.15145603     0.11000
H511        H  0.03186570  0.46201515  0.15138992     0.11000
H512        H  0.03214139  0.36846859  0.10487161     0.11000
C513        C  0.88030075  0.01734634  0.02325598    -0.15100
C514        C  0.87942067  0.48327564  0.02498568     0.07000
C515        C  0.88028700  0.46514073  0.99668918    -0.15100
C516        C  0.87967435  0.48083073  0.96721309    -0.15100
C517        C  0.87915787  0.01493577  0.96552066     0.07000
C518        C  0.88064060  0.03300977  0.99382289    -0.15100
H519        H  0.87953986  0.03188738  0.04465797     0.11000
H520        H  0.87924115  0.43881108  0.99732928     0.11000
H521        H  0.87844962  0.46633065  0.94579736     0.11000
H522        H  0.87988807  0.05934140  0.99326386     0.11000
C523        C  0.76529608  0.37700803  0.96615581    -0.15100
C524        C  0.72986580  0.36151948  0.96883201     0.07000
C525        C  0.71168593  0.36024389  0.99857302    -0.15100
C526        C  0.72868033  0.37416298  0.02517824    -0.15100
C527        C  0.76417095  0.38954956  0.02252252     0.07000
C528        C  0.78228651  0.39093129  0.99275824    -0.15100
H529        H  0.77956479  0.37886107  0.94344164     0.11000
H530        H  0.68416498  0.34859722  0.00128237     0.11000
H531        H  0.71442398  0.37229111  0.04789834     0.11000
H532        H  0.80981846  0.40256866  0.99004983     0.11000
C533        C  0.71581330  0.01991554  0.09539915    -0.15100
C534        C  0.74665507  0.01603074  0.11637423     0.07000
C535        C  0.75300654  0.03984006  0.13961443    -0.15100
C536        C  0.73043305  0.06769950  0.14096689    -0.15100
C537        C  0.70125538  0.07295893  0.11867489     0.07000
C538        C  0.69351719  0.04835958  0.09630814    -0.15100
H539        H  0.71011710  0.50174558  0.07742329     0.11000
H540        H  0.77605371  0.03720536  0.15652638     0.11000
H541        H  0.73736520  0.08601389  0.15850812     0.11000
H542        H  0.67152948  0.05177885  0.07859265     0.11000
C543        C  0.80216314  0.29770365  0.09917525    -0.15100
C544        C  0.79299865  0.32289175  0.12053265     0.07000
C545        C  0.76248357  0.31815377  0.14166528    -0.15100
C546        C  0.74000850  0.29025347  0.14000477    -0.15100
C547        C  0.74772677  0.26588092  0.11760525     0.07000
C548        C  0.77990725  0.26923897  0.09795412    -0.15100
H549        H  0.82527830  0.30066989  0.08239418     0.11000
H550        H  0.75442993  0.33691070  0.15840681     0.11000
H551        H  0.71593767  0.28807720  0.15596106     0.11000
H552        H  0.78676314  0.25061434  0.08070285     0.11000
C553        C  0.64559687  0.29537970  0.72909386    -0.15100
C554        C  0.67727850  0.30712050  0.71219847     0.07000
C555        C  0.70905154  0.31857382  0.72919531    -0.15100
C556        C  0.70899577  0.31842553  0.76241059    -0.15100
C557        C  0.67716705  0.30681755  0.77923527     0.07000
C558        C  0.64553999  0.29523622  0.76216774    -0.15100
H559        H  0.62069272  0.28627538  0.71676120     0.11000
H560        H  0.73387344  0.32778920  0.71684632     0.11000
H561        H  0.73377112  0.32755001  0.77489568     0.11000
H562        H  0.62058457  0.28603524  0.77436657     0.11000
C563        C  0.70871749  0.18124160  0.26201495    -0.15100
C564        C  0.67602813  0.19082558  0.27892374     0.07000
C565        C  0.64326895  0.19998933  0.26196529    -0.15100
C566        C  0.64328329  0.20009643  0.22892606    -0.15100
C567        C  0.67604894  0.19102546  0.21192625     0.07000
C568        C  0.70872941  0.18134401  0.22879017    -0.15100
H569        H  0.73432126  0.17385205  0.27443720     0.11000
H570        H  0.61752714  0.20733635  0.27421855     0.11000
H571        H  0.61755120  0.20751679  0.21670598     0.11000
H572        H  0.73434443  0.17402543  0.21633317     0.11000
C573        C  0.61693163  0.26808275  0.46722659    -0.15100
C574        C  0.61607998  0.23397599  0.46565778     0.07000
C575        C  0.61415495  0.21608012  0.49407044    -0.15100
C576        C  0.61520305  0.23191668  0.52345953    -0.15100
C577        C  0.61721326  0.26598150  0.52499316     0.07000
C578        C  0.61703572  0.28393111  0.49659414    -0.15100
H579        H  0.61864104  0.28247544  0.44576087     0.11000
H580        H  0.61392163  0.18973520  0.49361513     0.11000
H581        H  0.61542948  0.21751904  0.54496602     0.11000
H582        H  0.61901913  0.31021870  0.49706860     0.11000
C583        C  0.35031490  0.29679464  0.72895209    -0.15100
C584        C  0.31830291  0.30747168  0.71184102     0.07000
C585        C  0.28588949  0.31794749  0.72861046    -0.15100
C586        C  0.28562054  0.31784714  0.76182445    -0.15100
C587        C  0.31776194  0.30726668  0.77886565     0.07000
C588        C  0.35004479  0.29668879  0.76201644    -0.15100
H589        H  0.37573096  0.28849179  0.71679843     0.11000
H590        H  0.26078051  0.32630844  0.71608337     0.11000
H591        H  0.26032903  0.32615228  0.77413701     0.11000
H592        H  0.37528271  0.28832457  0.77437958     0.11000
C593        C  0.47810936  0.36139675  0.61569789    -0.15100
C594        C  0.45788661  0.33396509  0.62637433     0.07000
C595        C  0.47823183  0.30799682  0.63988209    -0.15100
C596        C  0.51794608  0.30797407  0.63986425    -0.15100
C597        C  0.53831010  0.33392153  0.62634306     0.07000
C598        C  0.51811717  0.36137579  0.61568385    -0.15100
H599        H  0.46316450  0.38178276  0.60523467     0.11000
H600        H  0.46348749  0.28667646  0.64870621     0.11000
H601        H  0.53266960  0.28664444  0.64867754     0.11000
H602        H  0.53308354  0.38175435  0.60521541     0.11000
C603        C  0.28632835  0.18046836  0.26218402    -0.15100
C604        C  0.31862097  0.19111498  0.27901406     0.07000
C605        C  0.35088314  0.20134752  0.26196786    -0.15100
C606        C  0.35078070  0.20139348  0.22892690    -0.15100
C607        C  0.31842036  0.19119331  0.21200423     0.07000
C608        C  0.28622654  0.18051107  0.22895336    -0.15100
H609        H  0.26112707  0.17222530  0.27467343     0.11000
H610        H  0.37629787  0.20957749  0.27415477     0.11000
H611        H  0.37611749  0.20965823  0.21664455     0.11000
H612        H  0.26094745  0.17230270  0.21655873     0.11000
C613        C  0.47749317  0.13732407  0.37627278    -0.15100
C614        C  0.45735398  0.16391025  0.36366304     0.07000
C615        C  0.47768224  0.18861784  0.34806739    -0.15100
C616        C  0.51742361  0.18862214  0.34814537    -0.15100
C617        C  0.53767039  0.16391947  0.36381954     0.07000
C618        C  0.51746506  0.13732980  0.37635369    -0.15100
H619        H  0.46252196  0.11790835  0.38835905     0.11000
H620        H  0.46289924  0.20915977  0.33768024     0.11000
H621        H  0.53226171  0.20916287  0.33780347     0.11000
H622        H  0.53237059  0.11791648  0.38848940     0.11000
C623        C  0.38175456  0.21592029  0.49400138    -0.15100
C624        C  0.38001979  0.23386664  0.46560942     0.07000
C625        C  0.37981497  0.26797615  0.46721530    -0.15100
C626        C  0.37998723  0.28378907  0.49660927    -0.15100
C627        C  0.37943450  0.26581132  0.52499499     0.07000
C628        C  0.38096662  0.23172844  0.52341294    -0.15100
H629        H  0.38155241  0.18957627  0.49351610     0.11000
H630        H  0.37833776  0.28240374  0.44576500     0.11000
H631        H  0.37842507  0.31009986  0.49710751     0.11000
H632        H  0.38048024  0.21729948  0.54489723     0.11000
C633        C  0.14402938  0.05057622  0.72911102    -0.15100
C634        C  0.17689823  0.05943157  0.71214143     0.07000
C635        C  0.20974854  0.06863664  0.72903301    -0.15100
C636        C  0.20975621  0.06853992  0.76226492    -0.15100
C637        C  0.17690383  0.05925145  0.77912677     0.07000
C638        C  0.14403748  0.05047935  0.76213423    -0.15100
H639        H  0.11817050  0.04351592  0.71687982     0.11000
H640        H  0.23546139  0.07573481  0.71659432     0.11000
H641        H  0.23547334  0.07557280  0.77472425     0.11000
H642        H  0.11818275  0.04335050  0.77434747     0.11000
C643        C  0.24223936  0.46120577  0.64016144    -0.15100
C644        C  0.24831566  0.48495301  0.61678577     0.07000
C645        C  0.27895725  0.48090552  0.59560377    -0.15100
C646        C  0.30131454  0.45244692  0.59649871    -0.15100
C647        C  0.29388716  0.42791972  0.61904468     0.07000
C648        C  0.26486781  0.43331598  0.64147927    -0.15100
H649        H  0.21936566  0.46391303  0.65722582     0.11000
H650        H  0.28447113  0.99898020  0.57748334     0.11000
H651        H  0.32312068  0.44895879  0.57863787     0.11000
H652        H  0.25813469  0.41508766  0.65915922     0.11000
C653        C  0.19407997  0.20235547  0.59617533    -0.15100
C654        C  0.20068928  0.17845718  0.61950935     0.07000
C655        C  0.22849476  0.18454959  0.64278478    -0.15100
C656        C  0.25109833  0.21243075  0.64139720    -0.15100
C657        C  0.24611558  0.23533974  0.61707546     0.07000
C658        C  0.21641224  0.23075356  0.59515674    -0.15100
H659        H  0.17317862  0.19828907  0.57769590     0.11000
H660        H  0.23441978  0.16680721  0.66111857     0.11000
H661        H  0.27321959  0.21571481  0.65904005     0.11000
H662        H  0.21180042  0.24823718  0.57632837     0.11000
C663        C  0.21099536  0.11200961  0.49284007    -0.15100
C664        C  0.23004889  0.11121281  0.52220978     0.07000
C665        C  0.26663741  0.12460888  0.52468166    -0.15100
C666        C  0.28385955  0.13863596  0.49827056    -0.15100
C667        C  0.26482006  0.13943369  0.46889671     0.07000
C668        C  0.22822859  0.12603002  0.46641753    -0.15100
H669        H  0.18256122  0.10202647  0.49029640     0.11000
H670        H  0.28169493  0.12474815  0.54710789     0.11000
H671        H  0.31229102  0.14861530  0.50082882     0.11000
H672        H  0.21318521  0.12588718  0.44398481     0.11000
C673        C  0.14444724  0.45358417  0.26213626    -0.15100
C674        C  0.17633317  0.44231097  0.27904421     0.07000
C675        C  0.20827205  0.43112622  0.26208994    -0.15100
C676        C  0.20829739  0.43132341  0.22888861    -0.15100
C677        C  0.17638315  0.44270943  0.21204851     0.07000
C678        C  0.14447414  0.45378392  0.22907223    -0.15100
H679        H  0.11937879  0.46238452  0.27445017     0.11000
H680        H  0.23321884  0.42218816  0.27446340     0.11000
H681        H  0.23324591  0.42251009  0.21642732     0.11000
H682        H  0.11940543  0.46271333  0.21684811     0.11000
C683        C  0.26609430  0.37202118  0.46542787    -0.15100
C684        C  0.23177009  0.38918259  0.46829764     0.07000
C685        C  0.21435743  0.39201991  0.49823593    -0.15100
C686        C  0.23090199  0.37784479  0.52485443    -0.15100
C687        C  0.26521462  0.36070193  0.52201640     0.07000
C688        C  0.28268412  0.35786726  0.49208528    -0.15100
H689        H  0.27966889  0.36895864  0.44254209     0.11000
H690        H  0.18770576  0.40502162  0.50107549     0.11000
H691        H  0.21728368  0.38090952  0.54771695     0.11000
H692        H  0.30936030  0.34487643  0.48929815     0.11000
C693        C  0.11488134  0.51826671  0.46776986    -0.15100
C694        C  0.11668750  0.48417680  0.46628063     0.07000
C695        C  0.11634250  0.46630705  0.49473078    -0.15100
C696        C  0.11635363  0.98222017  0.52407466    -0.15100
C697        C  0.11579214  0.01633242  0.52559984     0.07000
C698        C  0.11395136  0.03417619  0.49714696    -0.15100
H699        H  0.11521942  0.53262622  0.44624035     0.11000
H700        H  0.11813673  0.44000714  0.49432457     0.11000
H701        H  0.11795190  0.96786192  0.54556370     0.11000
H702        H  0.11391377  0.06052280  0.49756309     0.11000
C703        C  0.23057705  0.31674146  0.34897762    -0.15100
C704        C  0.20171828  0.32226098  0.37151090     0.07000
C705        C  0.19440368  0.29793516  0.39427038    -0.15100
C706        C  0.21683673  0.26958327  0.39536524    -0.15100
C707        C  0.24739221  0.26546139  0.37414341     0.07000
C708        C  0.25328844  0.28893304  0.35048316    -0.15100
H709        H  0.23716503  0.33483943  0.33113316     0.11000
H710        H  0.17269438  0.30154606  0.41218841     0.11000
H711        H  0.21147203  0.25167397  0.41367321     0.11000
H712        H  0.27608826  0.28608255  0.33336910     0.11000
C713        C  0.28005266  0.01894430  0.39428896    -0.15100
C714        C  0.24873249  0.01521469  0.37379186     0.07000
C715        C  0.24169749  0.03929196  0.35094526    -0.15100
C716        C  0.26403660  0.06728126  0.34959102    -0.15100
C717        C  0.29368771  0.07237681  0.37147643     0.07000
C718        C  0.30214716  0.04749706  0.39336680    -0.15100
H719        H  0.28627630  0.50056979  0.41195431     0.11000
H720        H  0.21824850  0.03680044  0.33439476     0.11000
H721        H  0.25654952  0.08581048  0.33242733     0.11000
H722        H  0.32454022  0.05077527  0.41075096     0.11000
C723        C  0.78485041  0.06710226  0.76205044    -0.15100
C724        C  0.81792883  0.05871160  0.77903764     0.07000
C725        C  0.85125259  0.05100873  0.76213443    -0.15100
C726        C  0.85148619  0.05128408  0.72908729    -0.15100
C727        C  0.81839184  0.05924359  0.71200012     0.07000
C728        C  0.78508336  0.06737395  0.72881214    -0.15100
H729        H  0.75876314  0.07327698  0.77442002     0.11000
H730        H  0.87730855  0.04463057  0.77444101     0.11000
H731        H  0.87770301  0.04508850  0.71692373     0.11000
H732        H  0.75916525  0.07372549  0.71630136     0.11000
C733        C  0.97771872  0.11283223  0.61608425    -0.15100
C734        C  0.95752219  0.08583239  0.62777107     0.07000
C735        C  0.97777888  0.06070840  0.64279114    -0.15100
C736        C  0.01752002  0.06072744  0.64288403    -0.15100
C737        C  0.03785050  0.08587710  0.62796877     0.07000
C738        C  0.01769561  0.11285693  0.61618782    -0.15100
H739        H  0.96281435  0.13262361  0.60454156     0.11000
H740        H  0.96296838  0.03984852  0.65253282     0.11000
H741        H  0.03228985  0.03988274  0.65268537     0.11000
H742        H  0.03265332  0.13266236  0.60471937     0.11000
C743        C  0.72884038  0.12454806  0.52445703    -0.15100
C744        C  0.76546724  0.11123585  0.52194660     0.07000
C745        C  0.78458786  0.11229775  0.49260623    -0.15100
C746        C  0.76733912  0.12639974  0.46623270    -0.15100
C747        C  0.73065522  0.13960805  0.46872539     0.07000
C748        C  0.71160453  0.13865589  0.49809732    -0.15100
H749        H  0.71373569  0.12451300  0.54686576     0.11000
H750        H  0.81307394  0.10243611  0.49003984     0.11000
H751        H  0.78242080  0.12642459  0.44381437     0.11000
H752        H  0.68311854  0.14852008  0.50068005     0.11000
C753        C  0.78038031  0.23122866  0.59561214    -0.15100
C754        C  0.75016833  0.23552414  0.61712525     0.07000
C755        C  0.74441107  0.21212984  0.64087599    -0.15100
C756        C  0.76676162  0.18412750  0.64210306    -0.15100
C757        C  0.79510338  0.17834606  0.61920376     0.07000
C758        C  0.80246636  0.20266446  0.59643619    -0.15100
H759        H  0.78559529  0.24908419  0.57722786     0.11000
H760        H  0.72186843  0.21513324  0.65820062     0.11000
H761        H  0.76021834  0.16607132  0.66000105     0.11000
H762        H  0.82383430  0.19885781  0.57826941     0.11000
C763        C  0.75325887  0.46147446  0.64039376    -0.15100
C764        C  0.74705941  0.48509972  0.61692675     0.07000
C765        C  0.71630263  0.48099533  0.59589433    -0.15100
C766        C  0.69399005  0.45253562  0.59697910    -0.15100
C767        C  0.70160788  0.42808719  0.61956061     0.07000
C768        C  0.73067904  0.43358335  0.64189881    -0.15100
H769        H  0.77621854  0.46425743  0.65735677     0.11000
H770        H  0.71069029  0.99899805  0.57772815     0.11000
H771        H  0.67210409  0.44896172  0.57920646     0.11000
H772        H  0.73753423  0.41541217  0.65959642     0.11000
C773        C  0.78671218  0.43139837  0.26224232    -0.15100
C774        C  0.81844023  0.44312608  0.27911751     0.07000
C775        C  0.84991889  0.45508694  0.26211385    -0.15100
C776        C  0.84978307  0.45525154  0.22904178    -0.15100
C777        C  0.81816456  0.44345984  0.21209527     0.07000
C778        C  0.78657689  0.43156121  0.22903251    -0.15100
H779        H  0.76206718  0.42196506  0.27468322     0.11000
H780        H  0.87478658  0.46439106  0.27436195     0.11000
H781        H  0.87456539  0.46466174  0.21674756     0.11000
H782        H  0.76184462  0.42223105  0.21663952     0.11000
C783        C  0.97765655  0.38791768  0.37498178    -0.15100
C784        C  0.95751921  0.41543320  0.36438105     0.07000
C785        C  0.97795736  0.44137084  0.35092384    -0.15100
C786        C  0.01765940  0.44137432  0.35109404    -0.15100
C787        C  0.03794318  0.41544673  0.36473658     0.07000
C788        C  0.01768492  0.38792651  0.37516551    -0.15100
H789        H  0.96262490  0.36751022  0.38533404     0.11000
H790        H  0.96328980  0.46272740  0.34209740     0.11000
H791        H  0.03242407  0.46272716  0.34236907     0.11000
H792        H  0.03259229  0.36751849  0.38563482     0.11000
C793        C  0.88222996  0.01772076  0.46772365    -0.15100
C794        C  0.87965899  0.48367864  0.46621687     0.07000
C795        C  0.87922703  0.46579279  0.49465342    -0.15100
C796        C  0.87903142  0.48171343  0.52400157    -0.15100
C797        C  0.88019520  0.01582402  0.52552672     0.07000
C798        C  0.88298731  0.03361789  0.49709702    -0.15100
H799        H  0.88254595  0.03207585  0.44618818     0.11000
H800        H  0.87686932  0.43952589  0.49420230     0.11000
H801        H  0.87674727  0.46738628  0.54546738     0.11000
H802        H  0.88358156  0.05995997  0.49749251     0.11000
C803        C  0.73016951  0.37248162  0.46604437    -0.15100
C804        C  0.76444317  0.38970659  0.46874901     0.07000
C805        C  0.78190820  0.39279828  0.49865283    -0.15100
C806        C  0.76546561  0.37870847  0.52539512    -0.15100
C807        C  0.73127146  0.36135736  0.52266200     0.07000
C808        C  0.71374834  0.35837518  0.49277126    -0.15100
H809        H  0.71654527  0.36925019  0.44320454     0.11000
H810        H  0.80852265  0.40589877  0.50134642     0.11000
H811        H  0.77909275  0.38192120  0.54823812     0.11000
H812        H  0.68715154  0.34525389  0.49004495     0.11000
C813        C  0.75396488  0.03959493  0.35130195    -0.15100
C814        C  0.74668592  0.01539883  0.37397532     0.07000
C815        C  0.71489086  0.01885118  0.39402637    -0.15100
C816        C  0.69263643  0.04731145  0.39295209    -0.15100
C817        C  0.70140855  0.07235706  0.37132844     0.07000
C818        C  0.73146485  0.06747168  0.34977271    -0.15100
H819        H  0.77772748  0.03729728  0.33503901     0.11000
H820        H  0.70840216  0.50033916  0.41148876     0.11000
H821        H  0.66987529  0.05039915  0.41004151     0.11000
H822        H  0.73918041  0.08611112  0.33278835     0.11000
C823        C  0.76343244  0.31745375  0.34943286    -0.15100
C824        C  0.79307821  0.32251548  0.37135280     0.07000
C825        C  0.80110963  0.29774470  0.39347634    -0.15100
C826        C  0.77872363  0.26934460  0.39451768    -0.15100
C827        C  0.74749623  0.26560825  0.37390228     0.07000
C828        C  0.74079013  0.28960580  0.35090175    -0.15100
H829        H  0.75623038  0.33590564  0.33210461     0.11000
H830        H  0.82343800  0.30098945  0.41092256     0.11000
H831        H  0.78472665  0.25104806  0.41231696     0.11000
H832        H  0.71743664  0.28712609  0.33426054     0.11000
O833        O  0.79637776  0.87816116  0.35761862    -0.83600
C834        C  0.87317524  0.96689038  0.43561643     0.95800
O835        O  0.88254782  0.93724638  0.43271545    -0.72700
O836        O  0.81949235  0.90687586  0.44266516    -0.76300
Al837      Al  0.85580014  0.90283810  0.41082379     1.49000
C838        C  0.78450309  0.90093802  0.44025063     0.91000
O839        O  0.76190930  0.96020736  0.38650585    -0.82500
O840        O  0.84910339  0.95171387  0.32842674    -0.76100
Al841      Al  0.78278489  0.91961697  0.37289502     1.90100
O842        O  0.80687464  0.99065501  0.36660665    -0.75100
O843        O  0.90313284  0.94846368  0.37133834    -0.75000
O844        O  0.85679829  0.98162291  0.41306309    -0.80600
O845        O  0.89626303  0.89643845  0.38120700    -0.78800
O846        O  0.83007883  0.92909375  0.38481237    -1.15000
O847        O  0.83273523  0.86242476  0.39666703    -0.74200
C848        C  0.80953922  0.85571569  0.37465094     0.96500
C849        C  0.77306369  0.98733934  0.37625524     0.92900
Al850      Al  0.85225780  0.96522781  0.37102572     1.55600
O851        O  0.76769593  0.90234114  0.41364384    -0.78800
C852        C  0.91662724  0.91993147  0.37187017     0.97100
C853        C  0.81907474  0.94295628  0.31421596     0.92000
O854        O  0.78960662  0.93448595  0.32969050    -0.84100
O855        O  0.79695910  0.62262450  0.63273572    -0.83600
C856        C  0.87393728  0.53299902  0.55600273     0.95800
O857        O  0.88341776  0.56265009  0.55858859    -0.72700
O858        O  0.82039507  0.59315230  0.54793141    -0.76300
Al859      Al  0.85655805  0.59735968  0.57994487     1.49000
C860        C  0.78548309  0.59950246  0.55031565     0.91000
O861        O  0.76246181  0.54030430  0.60429176    -0.82500
O862        O  0.84914171  0.54972550  0.66290759    -0.76100
Al863      Al  0.78327713  0.58105321  0.61775067     1.90100
O864        O  0.80712630  0.51006215  0.62495472    -0.75100
O865        O  0.90358905  0.55228450  0.62043261    -0.75000
O866        O  0.85754542  0.51858133  0.57875138    -0.80600
O867        O  0.89666356  0.60410606  0.60968636    -0.78800
O868        O  0.83062218  0.57143156  0.60614634    -1.15000
O869        O  0.83364366  0.63789525  0.59366927    -0.74200
C870        C  0.81063787  0.64488864  0.61572838     0.96500
C871        C  0.77347313  0.51323216  0.61484043     0.92900
Al872      Al  0.85265299  0.53551464  0.62054788     1.55600
O873        O  0.76860895  0.59807100  0.57688445    -0.78800
C874        C  0.91690367  0.58087342  0.61971341     0.97100
C875        C  0.81903549  0.55866226  0.67688980     0.92000
O876        O  0.78956020  0.56658089  0.66117146    -0.84100
O877        O  0.20557923  0.93413925  0.32948437    -0.83600
C878        C  0.12295802  0.96719910  0.43572445     0.95800
O879        O  0.13909417  0.98177443  0.41295034    -0.72700
O880        O  0.18868368  0.99035997  0.36620722    -0.76300
Al881      Al  0.14327125  0.96505568  0.37098148     1.49000
C882        C  0.22247421  0.98706957  0.37590578     0.91000
O883        O  0.22808633  0.90197052  0.41324549    -0.82500
O884        O  0.16267649  0.86245021  0.39695807    -0.76100
Al885      Al  0.21263966  0.91932372  0.37264135     1.90100
O886        O  0.17669916  0.90704393  0.44266385    -0.75100
O887        O  0.09908220  0.89646075  0.38193087    -0.75000
O888        O  0.11358439  0.93752973  0.43308328    -0.80600
O889        O  0.09237670  0.94840993  0.37166002    -0.78800
O890        O  0.16547285  0.92896915  0.38483234    -1.15000
O891        O  0.14603673  0.95121607  0.32845765    -0.74200
C892        C  0.17596075  0.94240141  0.31413049     0.96500
C893        C  0.21157045  0.90070154  0.43997402     0.92900
Al894      Al  0.13995088  0.90294285  0.41116266     1.55600
O895        O  0.23367884  0.95992657  0.38611791    -0.78800
C896        C  0.07879926  0.91991753  0.37239734     0.97100
C897        C  0.18554539  0.85554936  0.37475605     0.92000
O898        O  0.19869242  0.87786218  0.35752886    -0.84100
O899        O  0.20595622  0.56660220  0.66139288    -0.83600
C900        C  0.12172617  0.53336741  0.55618357     0.95800
O901        O  0.13798942  0.51884423  0.57892789    -0.72700
O902        O  0.18832281  0.51005983  0.62516305    -0.76300
Al903      Al  0.14282723  0.53562468  0.62075609     1.49000
C904        C  0.22194153  0.51317190  0.61494205     0.91000
O905        O  0.22696565  0.59804847  0.57713618    -0.82500
O906        O  0.16184050  0.63806304  0.59428612    -0.76100
Al907      Al  0.21231275  0.58106771  0.61799331     1.90100
O908        O  0.17500668  0.59363100  0.54832792    -0.75100
O909        O  0.09882107  0.60423489  0.61020745    -0.75000
O910        O  0.11211851  0.56298221  0.55888672    -0.80600
O911        O  0.09185178  0.55237099  0.62066786    -0.78800
O912        O  0.16489740  0.57158334  0.60645241    -1.15000
O913        O  0.14633792  0.54976955  0.66307080    -0.74200
C914        C  0.17641610  0.55873678  0.67706408     0.96500
C915        C  0.20999828  0.59966937  0.55062863     0.92900
Al916      Al  0.13892037  0.59763000  0.58040288     1.55600
O917        O  0.23296189  0.54026165  0.60444298    -0.78800
C918        C  0.07852795  0.58095721  0.62005625     0.97100
C919        C  0.18508809  0.64500703  0.61617600     0.92000
O920        O  0.19894793  0.62271770  0.63304405    -0.84100
O921        O  0.29635640  0.62805031  0.35799539    -0.83600
C922        C  0.37384286  0.71690996  0.43503893     0.95800
O923        O  0.38314591  0.68722891  0.43236645    -0.72700
O924        O  0.31991437  0.65707084  0.44288981    -0.76300
Al925      Al  0.35608478  0.65273573  0.41090689     1.49000
C926        C  0.28494459  0.65097392  0.44050391     0.91000
O927        O  0.26262661  0.71033354  0.38676378    -0.82500
O928        O  0.34924633  0.70060421  0.32812623    -0.76100
Al929      Al  0.28302227  0.66957804  0.37313132     1.90100
O930        O  0.30739949  0.74042148  0.36602347    -0.75100
O931        O  0.40358016  0.69769324  0.37065767    -0.75000
O932        O  0.35766125  0.73152477  0.41230856    -0.80600
O933        O  0.39620136  0.64586752  0.38122052    -0.78800
O934        O  0.33042341  0.67888727  0.38477012    -1.15000
O935        O  0.33284467  0.61238115  0.39702173    -0.74200
C936        C  0.30973471  0.60564276  0.37496334     0.96500
C937        C  0.27375318  0.73734888  0.37619509     0.92900
Al938      Al  0.35275654  0.71472754  0.37047628     1.55600
O939        O  0.26811103  0.65250887  0.41393190    -0.78800
C940        C  0.41669045  0.66903556  0.37139735     0.97100
C941        C  0.31911605  0.69181209  0.31410485     0.92000
O942        O  0.28950602  0.68412187  0.32976584    -0.84100
O943        O  0.29704174  0.87228363  0.63303263    -0.83600
C944        C  0.37311780  0.78267744  0.55557432     0.95800
O945        O  0.38285014  0.81224792  0.55840506    -0.72700
O946        O  0.32008333  0.84294676  0.54806001    -0.76300
Al947      Al  0.35632109  0.84696886  0.57999223     1.49000
C948        C  0.28517801  0.84923709  0.55046717     0.91000
O949        O  0.26208289  0.79027037  0.60430574    -0.82500
O950        O  0.34913139  0.79865074  0.66263134    -0.76100
Al951      Al  0.28315333  0.83080358  0.61788404     1.90100
O952        O  0.30650530  0.75964075  0.62478406    -0.75100
O953        O  0.40321834  0.80121400  0.61968125    -0.75000
O954        O  0.35655497  0.76813347  0.57816698    -0.80600
O955        O  0.39673802  0.85325704  0.60965409    -0.78800
O956        O  0.33035722  0.82100249  0.60610882    -1.15000
O957        O  0.33344681  0.88768105  0.59387484    -0.74200
C958        C  0.31025694  0.89461304  0.61586001     0.96500
C959        C  0.27284316  0.76313877  0.61484431     0.92900
Al960      Al  0.35217554  0.78479582  0.62013232     1.55600
O961        O  0.26835550  0.84802582  0.57707708    -0.78800
C962        C  0.41694298  0.82966624  0.61901248     0.97100
C963        C  0.31908071  0.80754073  0.67674342     0.92000
O964        O  0.28970052  0.81602829  0.66116434    -0.84100
O965        O  0.70538293  0.68404455  0.32958996    -0.83600
C966        C  0.62177792  0.71694388  0.43507022     0.95800
O967        O  0.63772922  0.73149890  0.41219408    -0.72700
O968        O  0.68762270  0.74032290  0.36571752    -0.76300
Al969      Al  0.64230854  0.71462721  0.37041051     1.49000
C970        C  0.72127405  0.73736239  0.37589819     0.91000
O971        O  0.72716574  0.65256334  0.41372826    -0.82500
O972        O  0.66223402  0.61232180  0.39695408    -0.76100
Al973      Al  0.71206320  0.66956059  0.37295053     1.90100
O974        O  0.67543574  0.65700640  0.44279379    -0.75100
O975        O  0.59880728  0.64585063  0.38142652    -0.75000
O976        O  0.61229612  0.68728726  0.43249546    -0.80600
O977        O  0.59146475  0.69766358  0.37084638    -0.78800
O978        O  0.66469433  0.67882543  0.38470264    -1.15000
O979        O  0.64557065  0.70035796  0.32809943    -0.74200
C980        C  0.67567154  0.69160351  0.31400594     0.96500
C981        C  0.71042089  0.65102750  0.44034142     0.92900
Al982      Al  0.63912199  0.65270675  0.41094424     1.55600
O983        O  0.73247804  0.71037185  0.38647627    -0.78800
C984        C  0.57832558  0.66902098  0.37161081     0.97100
C985        C  0.68531467  0.60560216  0.37485854     0.92000
O986        O  0.69869599  0.62802054  0.35790228    -0.84100
O987        O  0.70618565  0.81613608  0.66168592    -0.83600
C988        C  0.62347309  0.78283240  0.55557000     0.95800
O989        O  0.63994534  0.76827908  0.57817824    -0.72700
O990        O  0.68980959  0.75979668  0.62473937    -0.76300
Al991      Al  0.64410627  0.78480488  0.62019530     1.49000
C992        C  0.72356111  0.76342283  0.61504608     0.91000
O993        O  0.72803252  0.84860735  0.57777301    -0.82500
O994        O  0.66260093  0.88772291  0.59422303    -0.76100
Al995      Al  0.71296892  0.83110835  0.61848134     1.90100
O996        O  0.67655775  0.84309990  0.54853033    -0.75100
O997        O  0.59942249  0.85322973  0.60964251    -0.75000
O998        O  0.61372519  0.81238265  0.55840875    -0.80600
O999        O  0.59302445  0.80118064  0.61971326    -0.78800
O1000       O  0.66589643  0.82111600  0.60640914    -1.15000
O1001       O  0.64690946  0.79837877  0.66278775    -0.74200
C1002       C  0.67677940  0.80736437  0.67708713     0.96500
C1003       C  0.71136446  0.84971732  0.55108797     0.92900
Al1004     Al  0.64003849  0.84704158  0.58020005     1.55600
O1005       O  0.73444297  0.79068974  0.60490319    -0.78800
C1006       C  0.57925430  0.82962086  0.61900056     0.97100
C1007       C  0.68545748  0.89474162  0.61639359     0.92000
O1008       O  0.69860875  0.87247317  0.63367760    -0.84100
O1009       O  0.78915359  0.93509081  0.16150155    -0.83600
C1010       C  0.87307695  0.96670136  0.05567007     0.95800
O1011       O  0.85671939  0.98160620  0.07812400    -0.72700
O1012       O  0.80668739  0.99116513  0.12436003    -0.76300
Al1013     Al  0.85201535  0.96555709  0.12018996     1.49000
C1014       C  0.77297061  0.98789237  0.11448921     0.91000
O1015       O  0.76747181  0.90271830  0.07753942    -0.82500
O1016       O  0.83258954  0.86266518  0.09510234    -0.76100
Al1017     Al  0.78243807  0.92010825  0.11827324     1.90100
O1018       O  0.81944696  0.90658190  0.04864473    -0.75100
O1019       O  0.89585653  0.89670110  0.11055835    -0.75000
O1020       O  0.88251076  0.93710516  0.05876283    -0.80600
O1021       O  0.90288688  0.94875461  0.12015686    -0.78800
O1022       O  0.82981456  0.92937696  0.10649164    -1.15000
O1023       O  0.84866885  0.95227068  0.16279606    -0.74200
C1024       C  0.81864766  0.94348914  0.17699170     0.96500
C1025       C  0.78437209  0.90088089  0.05099305     0.92900
Al1026     Al  0.85563347  0.90289473  0.08073613     1.55600
O1027       O  0.76180501  0.96071439  0.10438080    -0.78800
C1028       C  0.91623638  0.92017812  0.11987445     0.97100
C1029       C  0.80923911  0.85611363  0.11703010     0.92000
O1030       O  0.79574815  0.87867039  0.13374615    -0.84100
O1031       O  0.78863062  0.56566194  0.82975161    -0.83600
C1032       C  0.87277239  0.53189475  0.93501959     0.95800
O1033       O  0.85637841  0.51744060  0.91230577    -0.72700
O1034       O  0.80599132  0.50926537  0.86603505    -0.76300
Al1035     Al  0.85158426  0.53455406  0.87053029     1.49000
C1036       C  0.77229064  0.51254242  0.87602842     0.91000
O1037       O  0.76738271  0.59738887  0.91393259    -0.82500
O1038       O  0.83227300  0.63681087  0.89771683    -0.76100
Al1039     Al  0.78224519  0.58023411  0.87314125     1.90100
O1040       O  0.81881762  0.59167885  0.94316903    -0.75100
O1041       O  0.89570393  0.60314968  0.88176928    -0.75000
O1042       O  0.88213722  0.56155193  0.93245944    -0.80600
O1043       O  0.90257125  0.55134748  0.87081349    -0.78800
O1044       O  0.82951906  0.57045575  0.88490803    -1.15000
O1045       O  0.84823579  0.54886144  0.82822356    -0.74200
C1046       C  0.81822291  0.55783238  0.81414021     0.96500
C1047       C  0.78402122  0.59845896  0.94061251     0.92900
Al1048     Al  0.85526950  0.59623571  0.91129904     1.55600
O1049       O  0.76130059  0.53960055  0.88660400    -0.78800
C1050       C  0.91603716  0.57989355  0.87183920     0.97100
C1051       C  0.80945317  0.64393414  0.87555616     0.92000
O1052       O  0.79620675  0.62177557  0.85817850    -0.84100
O1053       O  0.19857616  0.87848656  0.13376492    -0.83600
C1054       C  0.12173273  0.96673801  0.05566683     0.95800
O1055       O  0.11219522  0.93714664  0.05871230    -0.72700
O1056       O  0.17502511  0.90634480  0.04865638    -0.76300
Al1057     Al  0.13882241  0.90279321  0.08072324     1.49000
C1058       C  0.21007721  0.90057882  0.05097509     0.91000
O1059       O  0.23283135  0.96039505  0.10433426    -0.82500
O1060       O  0.14588261  0.95184838  0.16280983    -0.76100
Al1061     Al  0.21207715  0.91982141  0.11823608     1.90100
O1062       O  0.18814569  0.99086457  0.12461286    -0.75100
O1063       O  0.09164541  0.94874598  0.12012730    -0.75000
O1064       O  0.13803883  0.98159676  0.07819049    -0.80600
O1065       O  0.09853569  0.89669762  0.11050558    -0.78800
O1066       O  0.16472794  0.92919588  0.10647518    -1.15000
O1067       O  0.16167043  0.86249241  0.09516328    -0.74200
C1068       C  0.18499077  0.85593517  0.11711162     0.96500
C1069       C  0.22185408  0.98753529  0.11469874     0.92900
Al1070     Al  0.14264134  0.96538340  0.12026053     1.55600
O1071       O  0.22699716  0.90234111  0.07751167    -0.78800
C1072       C  0.07820437  0.92019648  0.11981717     0.97100
C1073       C  0.17591005  0.94301243  0.17696262     0.92000
O1074       O  0.20545137  0.93481171  0.16143947    -0.84100
O1075       O  0.19832459  0.62223569  0.85828368    -0.83600
C1076       C  0.12175369  0.53224884  0.93496803     0.95800
O1077       O  0.11223759  0.56189457  0.93245024    -0.72700
O1078       O  0.17525310  0.59238760  0.94311667    -0.76300
Al1079     Al  0.13891874  0.59672783  0.91119977     1.49000
C1080       C  0.21009855  0.59897509  0.94065732     0.91000
O1081       O  0.23304297  0.54003949  0.88670474    -0.82500
O1082       O  0.14627936  0.54952628  0.82818319    -0.76100
Al1083     Al  0.21216693  0.58071771  0.87325371     1.90100
O1084       O  0.18846465  0.50983075  0.86583424    -0.75100
O1085       O  0.09181414  0.55169112  0.87072690    -0.75000
O1086       O  0.13810492  0.51787675  0.91217259    -0.80600
O1087       O  0.09848768  0.60349826  0.88162869    -0.78800
O1088       O  0.16483242  0.57096575  0.88488806    -1.15000
O1089       O  0.16179766  0.63736848  0.89751016    -0.74200
C1090       C  0.18479712  0.64443936  0.87544429     0.96500
C1091       C  0.22212251  0.51304373  0.87592248     0.92900
Al1092     Al  0.14286044  0.53506679  0.87042506     1.55600
O1093       O  0.22686994  0.59779960  0.91404749    -0.78800
C1094       C  0.07823524  0.58018802  0.87172792     0.97100
C1095       C  0.17638969  0.55845476  0.81419640     0.92000
O1096       O  0.20593449  0.56622787  0.82987690    -0.84100
O1097       O  0.28903622  0.68422969  0.16137623    -0.83600
C1098       C  0.37254976  0.71800970  0.05589541     0.95800
O1099       O  0.35641908  0.73244855  0.07874844    -0.72700
O1100       O  0.30649682  0.74068461  0.12528536    -0.76300
Al1101     Al  0.35188607  0.71527771  0.12049850     1.49000
C1102       C  0.27275402  0.73761371  0.11536445     0.91000
O1103       O  0.26723490  0.65291461  0.07719736    -0.82500
O1104       O  0.33219881  0.61305191  0.09341725    -0.76100
Al1105     Al  0.28233653  0.66986093  0.11799663     1.90100
O1106       O  0.31873132  0.65819363  0.04795353    -0.75100
O1107       O  0.39574184  0.64663413  0.10909437    -0.75000
O1108       O  0.38197652  0.68834411  0.05838048    -0.80600
O1109       O  0.40276542  0.69843014  0.11993580    -0.78800
O1110       O  0.32962327  0.67945685  0.10614124    -1.15000
O1111       O  0.34872773  0.70086807  0.16278124    -0.74200
C1112       C  0.31871095  0.69196538  0.17691727     0.96500
C1113       C  0.28386597  0.65174132  0.05051747     0.92900
Al1114     Al  0.35521311  0.65361620  0.07969048     1.55600
O1115       O  0.26157387  0.71063491  0.10473129    -0.78800
C1116       C  0.41613258  0.66986172  0.11897425     0.97100
C1117       C  0.30936764  0.60602916  0.11561632     0.92000
O1118       O  0.29603700  0.62826221  0.13283893    -0.84100
O1119       O  0.28868598  0.81585779  0.82943774    -0.83600
C1120       C  0.37209913  0.78356625  0.93530990     0.95800
O1121       O  0.35558204  0.76882050  0.91283348    -0.72700
O1122       O  0.30562039  0.75973789  0.86643773    -0.76300
Al1123     Al  0.35119062  0.78496666  0.87077295     1.49000
C1124       C  0.27194330  0.76316222  0.87633862     0.91000
O1125       O  0.26731174  0.84844896  0.91344202    -0.82500
O1126       O  0.33301624  0.88793933  0.89580096    -0.76100
Al1127     Al  0.28209066  0.83091410  0.87269416     1.90100
O1128       O  0.31929257  0.84425181  0.94227711    -0.75100
O1129       O  0.39591465  0.85338099  0.88043022    -0.75000
O1130       O  0.38188551  0.81309038  0.93225156    -0.80600
O1131       O  0.40226280  0.80126503  0.87095760    -0.78800
O1132       O  0.32938379  0.82130279  0.88447383    -1.15000
O1133       O  0.34809885  0.79839533  0.82820650    -0.74200
C1134       C  0.31815305  0.80729997  0.81397457     0.96500
C1135       C  0.28428598  0.85022064  0.93995983     0.92900
Al1136     Al  0.35552601  0.84755777  0.91021802     1.55600
O1137       O  0.26101873  0.79037758  0.88657137    -0.78800
C1138       C  0.41604448  0.82968639  0.87126977     0.97100
C1139       C  0.30969367  0.89472083  0.87392907     0.92000
O1140       O  0.29581069  0.87230497  0.85724152    -0.84100
O1141       O  0.69806434  0.62845040  0.13272917    -0.83600
C1142       C  0.62136371  0.71801669  0.05601703     0.95800
O1143       O  0.61204498  0.68833181  0.05847123    -0.72700
O1144       O  0.67546272  0.65837283  0.04777632    -0.76300
Al1145     Al  0.63900092  0.65365670  0.07960562     1.49000
C1146       C  0.71031495  0.65182055  0.05034066     0.91000
O1147       O  0.73265394  0.71073271  0.10456396    -0.82500
O1148       O  0.64561741  0.70081325  0.16278678    -0.76100
Al1149     Al  0.71189017  0.66995603  0.11785077     1.90100
O1150       O  0.68772771  0.74073941  0.12520332    -0.75100
O1151       O  0.59150685  0.69832423  0.12007177    -0.75000
O1152       O  0.63761253  0.73244198  0.07881941    -0.80600
O1153       O  0.59852297  0.64655205  0.10907744    -0.78800
O1154       O  0.66459449  0.67951664  0.10606066    -1.15000
O1155       O  0.66218813  0.61311920  0.09318908    -0.74200
C1156       C  0.68502843  0.60619007  0.11539906     0.96500
C1157       C  0.72146696  0.73770194  0.11523324     0.92900
Al1158     Al  0.64232835  0.71526687  0.12052420     1.55600
O1159       O  0.72692691  0.65296428  0.07702986    -0.78800
C1160       C  0.57813910  0.66975699  0.11904350     0.97100
C1161       C  0.67568275  0.69193875  0.17684849     0.92000
O1162       O  0.70534125  0.68433079  0.16123354    -0.84100
O1163       O  0.69870422  0.87180546  0.85768424    -0.83600
C1164       C  0.62171396  0.78332386  0.93549340     0.95800
O1165       O  0.61213661  0.81287981  0.93241494    -0.72700
O1166       O  0.67484050  0.84387933  0.94268682    -0.76300
Al1167     Al  0.63870496  0.84722804  0.91050148     1.49000
C1168       C  0.70986220  0.84983986  0.94039502     0.91000
O1169       O  0.73308569  0.78978355  0.88714019    -0.82500
O1170       O  0.64637483  0.79800680  0.82843645    -0.76100
Al1171     Al  0.71222871  0.83038209  0.87318415     1.90100
O1172       O  0.68847660  0.75923971  0.86686999    -0.75100
O1173       O  0.59198066  0.80105908  0.87103418    -0.75000
O1174       O  0.63823118  0.76846883  0.91308131    -0.80600
O1175       O  0.59844636  0.85314198  0.88062902    -0.78800
O1176       O  0.66485104  0.82088906  0.88482251    -1.15000
O1177       O  0.66135832  0.88752343  0.89613041    -0.74200
C1178       C  0.68474402  0.89425305  0.87429437     0.96500
C1179       C  0.72212286  0.76259243  0.87686172     0.92900
Al1180     Al  0.64297044  0.78460407  0.87102917     1.55600
O1181       O  0.72688969  0.84791590  0.91391624    -0.78800
C1182       C  0.57828098  0.82950591  0.87138188     0.97100
C1183       C  0.67645205  0.80684879  0.81434260     0.92000
O1184       O  0.70582392  0.81534661  0.82994123    -0.84100
C1185       C  0.61253844  0.71709950  0.99726066    -0.15100
C1186       C  0.61511018  0.73509721  0.02556508     0.07000
C1187       C  0.61593606  0.76919932  0.02389930    -0.15100
C1188       C  0.61556781  0.78492093  0.99446118    -0.15100
C1189       C  0.61532236  0.76680449  0.96615827     0.07000
C1190       C  0.61312619  0.73278530  0.96783524    -0.15100
H1191       H  0.61223314  0.69076630  0.99778917     0.11000
H1192       H  0.61805870  0.78365315  0.04529949     0.11000
H1193       H  0.61765920  0.81120697  0.99382843     0.11000
H1194       H  0.61299110  0.71828730  0.94639343     0.11000
C1195       C  0.47729611  0.80769244  0.85063353    -0.15100
C1196       C  0.45696970  0.83387056  0.86376842     0.07000
C1197       C  0.47720771  0.86146559  0.87400766    -0.15100
C1198       C  0.51721427  0.86142200  0.87403586    -0.15100
C1199       C  0.53738975  0.83378409  0.86381957     0.07000
C1200       C  0.51701137  0.80765058  0.85065762    -0.15100
H1201       H  0.46253962  0.78624164  0.84214208     0.11000
H1202       H  0.46227387  0.88202466  0.88416256     0.11000
H1203       H  0.53218715  0.88194602  0.88421234     0.11000
H1204       H  0.53171965  0.78616590  0.84218451     0.11000
C1205       C  0.47728346  0.69046764  0.14107349    -0.15100
C1206       C  0.45691727  0.66501993  0.12669497     0.07000
C1207       C  0.47709035  0.63777364  0.11549010    -0.15100
C1208       C  0.51712271  0.63773439  0.11551759    -0.15100
C1209       C  0.53734033  0.66493833  0.12676059     0.07000
C1210       C  0.51699808  0.69042217  0.14111474    -0.15100
H1211       H  0.46256990  0.71155712  0.15042978     0.11000
H1212       H  0.46211065  0.61771092  0.10446685     0.11000
H1213       H  0.53207271  0.61765258  0.10450911     0.11000
H1214       H  0.53174002  0.71148494  0.15049953     0.11000
C1215       C  0.37897704  0.76915883  0.02373858    -0.15100
C1216       C  0.37854050  0.73504205  0.02535896     0.07000
C1217       C  0.37970491  0.71705131  0.99699681    -0.15100
C1218       C  0.37912862  0.73280205  0.96760183    -0.15100
C1219       C  0.37832702  0.76688049  0.96595831     0.07000
C1220       C  0.37935614  0.78493309  0.99429923    -0.15100
H1221       H  0.37793414  0.78360669  0.04519708     0.11000
H1222       H  0.37895325  0.69072048  0.99749773     0.11000
H1223       H  0.37821560  0.71832182  0.94616338     0.11000
H1224       H  0.37834061  0.81126879  0.99372975     0.11000
C1225       C  0.24208192  0.96144036  0.85009605    -0.15100
C1226       C  0.24862904  0.98506894  0.87348750     0.07000
C1227       C  0.27978433  0.98110312  0.89411894    -0.15100
C1228       C  0.30206110  0.95266455  0.89284814    -0.15100
C1229       C  0.29393116  0.92811190  0.87051027     0.07000
C1230       C  0.26459066  0.93355104  0.84842430    -0.15100
H1231       H  0.21884091  0.96416877  0.83338982     0.11000
H1232       H  0.28570151  0.49915826  0.91216741     0.11000
H1233       H  0.32422964  0.94913665  0.91038677     0.11000
H1234       H  0.25741266  0.91530614  0.83089154     0.11000
C1235       C  0.19318986  0.70213742  0.89496392    -0.15100
C1236       C  0.20054334  0.67786816  0.87215002     0.07000
C1237       C  0.22900121  0.68366712  0.84934438    -0.15100
C1238       C  0.25133710  0.71169111  0.85062599    -0.15100
C1239       C  0.24548410  0.73510731  0.87434698     0.07000
C1240       C  0.21526447  0.73072270  0.89584471    -0.15100
H1241       H  0.17177762  0.69830575  0.91308375     0.11000
H1242       H  0.23559326  0.66563732  0.83143806     0.11000
H1243       H  0.27390198  0.71472216  0.83332348     0.11000
H1244       H  0.20998052  0.74855928  0.91422693     0.11000
C1245       C  0.26496981  0.62711507  0.96599715    -0.15100
C1246       C  0.23007126  0.61082833  0.96896202     0.07000
C1247       C  0.21215235  0.60923807  0.99877866    -0.15100
C1248       C  0.22884654  0.62374473  0.02518627    -0.15100
C1249       C  0.26375871  0.64001376  0.02222252     0.07000
C1250       C  0.28165171  0.64162869  0.99239439    -0.15100
H1251       H  0.27899934  0.62920255  0.94319846     0.11000
H1252       H  0.18502336  0.59696764  0.00167669     0.11000
H1253       H  0.21484200  0.62164039  0.04799257     0.11000
H1254       H  0.30878573  0.65388739  0.98948410     0.11000
C1255       C  0.21234847  0.89150988  0.99262203    -0.15100
C1256       C  0.23021296  0.88934221  0.02244259     0.07000
C1257       C  0.26531979  0.87332907  0.02502921    -0.15100
C1258       C  0.28219843  0.85959360  0.99828073    -0.15100
C1259       C  0.26428324  0.86168534  0.96847321     0.07000
C1260       C  0.22922626  0.87777500  0.96587379    -0.15100
H1261       H  0.18511402  0.90365510  0.98997542     0.11000
H1262       H  0.27934075  0.87083391  0.04778844     0.11000
H1263       H  0.30943288  0.84744303  0.00092982     0.11000
H1264       H  0.21520259  0.88026373  0.94312018     0.11000
C1265       C  0.11560077  0.96526772  0.99659697    -0.15100
C1266       C  0.11554034  0.98333509  0.02494141     0.07000
C1267       C  0.11372161  0.51738548  0.02325040    -0.15100
C1268       C  0.11325185  0.53311211  0.99381869    -0.15100
C1269       C  0.11556727  0.51514510  0.96547697     0.07000
C1270       C  0.11609723  0.98102852  0.96714745    -0.15100
H1271       H  0.11740652  0.93896860  0.99720141     0.11000
H1272       H  0.11375901  0.53187837  0.04469298     0.11000
H1273       H  0.11319664  0.55945147  0.99330856     0.11000
H1274       H  0.11802360  0.96657984  0.94573262     0.11000
C1275       C  0.23178149  0.81806113  0.14174497    -0.15100
C1276       C  0.20116850  0.82271690  0.12069692     0.07000
C1277       C  0.19191402  0.79746888  0.09944434    -0.15100
C1278       C  0.21419858  0.76902841  0.09821471    -0.15100
C1279       C  0.24648306  0.76576385  0.11775320     0.07000
C1280       C  0.25428743  0.79019418  0.14006520    -0.15100
H1281       H  0.23990725  0.83686880  0.15841050     0.11000
H1282       H  0.16871994  0.80037597  0.08273892     0.11000
H1283       H  0.20728013  0.75034945  0.08103615     0.11000
H1284       H  0.27844667  0.78809004  0.15593457     0.11000
C1285       C  0.24262214  0.53895113  0.14053290    -0.15100
C1286       C  0.24836673  0.51555068  0.11678057     0.07000
C1287       C  0.27869541  0.51980677  0.09536176    -0.15100
C1288       C  0.30089768  0.54830815  0.09625572    -0.15100
C1289       C  0.29357865  0.57262675  0.11901583     0.07000
C1290       C  0.26510479  0.56690287  0.14183617    -0.15100
H1291       H  0.22002997  0.53597361  0.15781938     0.11000
H1292       H  0.28396134  0.00193850  0.07700526     0.11000
H1293       H  0.32236591  0.55205047  0.07816356     0.11000
H1294       H  0.25858630  0.58495880  0.15973875     0.11000
C1295       C  0.97729468  0.55937730  0.84964449    -0.15100
C1296       C  0.95688123  0.58470823  0.86419448     0.07000
C1297       C  0.97705009  0.61184674  0.87564784    -0.15100
C1298       C  0.01707827  0.61192886  0.87560346    -0.15100
C1299       C  0.03736234  0.58486985  0.86411213     0.07000
C1300       C  0.01704567  0.55945973  0.84959935    -0.15100
H1301       H  0.96258724  0.53836471  0.84012332     0.11000
H1302       H  0.96206344  0.63179933  0.88685062     0.11000
H1303       H  0.03198690  0.63193940  0.88677740     0.11000
H1304       H  0.03184099  0.53850589  0.84004903     0.11000
C1305       C  0.78162314  0.60851398  0.99878215    -0.15100
C1306       C  0.76400562  0.61047054  0.96886733     0.07000
C1307       C  0.72946902  0.62729946  0.96577788    -0.15100
C1308       C  0.71283899  0.64195327  0.99214905    -0.15100
C1309       C  0.73043152  0.63996214  0.02207244     0.07000
C1310       C  0.76499246  0.62316895  0.02515426    -0.15100
H1311       H  0.80847096  0.59583247  0.00178482     0.11000
H1312       H  0.71569859  0.62970003  0.94290383     0.11000
H1313       H  0.68598354  0.65462282  0.98914859     0.11000
H1314       H  0.77875121  0.62075446  0.04803393     0.11000
C1315       C  0.76540201  0.68333333  0.84948905    -0.15100
C1316       C  0.79357914  0.67733283  0.87246878     0.07000
C1317       C  0.80055769  0.70134410  0.89562613    -0.15100
C1318       C  0.77843764  0.72989023  0.89661683    -0.15100
C1319       C  0.74854007  0.73450763  0.87487299     0.07000
C1320       C  0.74301565  0.71133428  0.85086405    -0.15100
H1321       H  0.75909303  0.66548482  0.83133717     0.11000
H1322       H  0.82172264  0.69733596  0.91390495     0.11000
H1323       H  0.78344602  0.74752339  0.91524203     0.11000
H1324       H  0.72069595  0.71455518  0.83338927     0.11000
C1325       C  0.72965479  0.93310937  0.84862320    -0.15100
C1326       C  0.70045740  0.92764237  0.87083197     0.07000
C1327       C  0.69245243  0.95216028  0.89324072    -0.15100
C1328       C  0.71474606  0.98058954  0.89445926    -0.15100
C1329       C  0.74578055  0.98457236  0.87369628     0.07000
C1330       C  0.75218487  0.96098498  0.85024399    -0.15100
H1331       H  0.73671323  0.91489036  0.83102669     0.11000
H1332       H  0.67038977  0.94860470  0.91087419     0.11000
H1333       H  0.70894602  0.49862157  0.91256161     0.11000
H1334       H  0.77532466  0.96374355  0.83344304     0.11000
C1335       C  0.97721462  0.88842838  0.11609809    -0.15100
C1336       C  0.95701806  0.91552283  0.12756192     0.07000
C1337       C  0.97734297  0.94097998  0.14198542    -0.15100
C1338       C  0.01708409  0.94100325  0.14194540    -0.15100
C1339       C  0.03740340  0.91556346  0.12749484     0.07000
C1340       C  0.01720283  0.88844721  0.11606749    -0.15100
H1341       H  0.96227090  0.86844342  0.10491407     0.11000
H1342       H  0.96255852  0.96198396  0.15145581     0.11000
H1343       H  0.03186890  0.96201992  0.15139202     0.11000
H1344       H  0.03214163  0.86846767  0.10487095     0.11000
C1345       C  0.88030068  0.51734595  0.02325601    -0.15100
C1346       C  0.87942075  0.98327610  0.02498558     0.07000
C1347       C  0.88028705  0.96514076  0.99668907    -0.15100
C1348       C  0.87967432  0.98083116  0.96721303    -0.15100
C1349       C  0.87915793  0.51493543  0.96552083     0.07000
C1350       C  0.88064061  0.53300975  0.99382298    -0.15100
H1351       H  0.87953968  0.53188764  0.04465800     0.11000
H1352       H  0.87924137  0.93881482  0.99732922     0.11000
H1353       H  0.87844948  0.96633005  0.94579693     0.11000
H1354       H  0.87988819  0.55933842  0.99326395     0.11000
C1355       C  0.76529598  0.87700801  0.96615592    -0.15100
C1356       C  0.72986491  0.86151916  0.96883227     0.07000
C1357       C  0.71168591  0.86024391  0.99857285    -0.15100
C1358       C  0.72867970  0.87416277  0.02517814    -0.15100
C1359       C  0.76417120  0.88954967  0.02252204     0.07000
C1360       C  0.78228648  0.89093129  0.99275817    -0.15100
H1361       H  0.77956401  0.87886084  0.94344250     0.11000
H1362       H  0.68415826  0.84859454  0.00128326     0.11000
H1363       H  0.71442587  0.87229163  0.04789595     0.11000
H1364       H  0.80982008  0.90256937  0.99004951     0.11000
C1365       C  0.71581359  0.51991547  0.09539928    -0.15100
C1366       C  0.74665555  0.51603101  0.11637462     0.07000
C1367       C  0.75300674  0.53983988  0.13961430    -0.15100
C1368       C  0.73043304  0.56769961  0.14096690    -0.15100
C1369       C  0.70125525  0.57295886  0.11867477     0.07000
C1370       C  0.69351717  0.54835999  0.09630838    -0.15100
H1371       H  0.71011593  0.00174180  0.07741969     0.11000
H1372       H  0.77605402  0.53720562  0.15652668     0.11000
H1373       H  0.73736427  0.58601156  0.15850587     0.11000
H1374       H  0.67153104  0.55177828  0.07859368     0.11000
C1375       C  0.80216315  0.79770349  0.09917527    -0.15100
C1376       C  0.79299855  0.82289172  0.12053280     0.07000
C1377       C  0.76248327  0.81815359  0.14166545    -0.15100
C1378       C  0.74000854  0.79025364  0.14000488    -0.15100
C1379       C  0.74772658  0.76588093  0.11760541     0.07000
C1380       C  0.77990734  0.76923902  0.09795414    -0.15100
H1381       H  0.82527896  0.80067000  0.08239388     0.11000
H1382       H  0.75442950  0.83691246  0.15840829     0.11000
H1383       H  0.71593437  0.78807675  0.15596317     0.11000
H1384       H  0.78676342  0.75061366  0.08070229     0.11000
C1385       C  0.64559687  0.79537971  0.72909388    -0.15100
C1386       C  0.67727871  0.80712068  0.71219825     0.07000
C1387       C  0.70905117  0.81857381  0.72919510    -0.15100
C1388       C  0.70899590  0.81842566  0.76241037    -0.15100
C1389       C  0.67716656  0.80681733  0.77923506     0.07000
C1390       C  0.64553981  0.79523612  0.76216769    -0.15100
H1391       H  0.62069233  0.78627526  0.71676091     0.11000
H1392       H  0.73387634  0.82779046  0.71684503     0.11000
H1393       H  0.73376766  0.82754884  0.77489416     0.11000
H1394       H  0.62058380  0.78603480  0.77436697     0.11000
C1395       C  0.70871740  0.68124148  0.26201494    -0.15100
C1396       C  0.67602814  0.69082553  0.27892384     0.07000
C1397       C  0.64326893  0.69998948  0.26196512    -0.15100
C1398       C  0.64328321  0.70009663  0.22892624    -0.15100
C1399       C  0.67604875  0.69102558  0.21192635     0.07000
C1400       C  0.70872955  0.68134387  0.22879038    -0.15100
H1401       H  0.73432331  0.67385118  0.27443827     0.11000
H1402       H  0.61752514  0.70733716  0.27421976     0.11000
H1403       H  0.61754926  0.70751761  0.21670474     0.11000
H1404       H  0.73434403  0.67402539  0.21633319     0.11000
C1405       C  0.61693169  0.76808278  0.46722654    -0.15100
C1406       C  0.61608009  0.73397612  0.46565783     0.07000
C1407       C  0.61415500  0.71608010  0.49407029    -0.15100
C1408       C  0.61520306  0.73191693  0.52345961    -0.15100
C1409       C  0.61721319  0.76598164  0.52499321     0.07000
C1410       C  0.61703566  0.78393107  0.49659436    -0.15100
H1411       H  0.61864099  0.78247447  0.44576245     0.11000
H1412       H  0.61392177  0.68973809  0.49361531     0.11000
H1413       H  0.61542944  0.71751970  0.54496451     0.11000
H1414       H  0.61901904  0.81021866  0.49706849     0.11000
C1415       C  0.35031472  0.79679477  0.72895186    -0.15100
C1416       C  0.31830280  0.80747179  0.71184071     0.07000
C1417       C  0.28588984  0.81794746  0.72861021    -0.15100
C1418       C  0.28562042  0.81784724  0.76182434    -0.15100
C1419       C  0.31776215  0.80726662  0.77886535     0.07000
C1420       C  0.35004504  0.79668879  0.76201636    -0.15100
H1421       H  0.37573158  0.78849165  0.71679826     0.11000
H1422       H  0.26077866  0.82630921  0.71608270     0.11000
H1423       H  0.26033240  0.82615116  0.77413552     0.11000
H1424       H  0.37528065  0.78832534  0.77437845     0.11000
C1425       C  0.47810970  0.86139698  0.61569779    -0.15100
C1426       C  0.45788675  0.83396550  0.62637415     0.07000
C1427       C  0.47823205  0.80799665  0.63988209    -0.15100
C1428       C  0.51794605  0.80797412  0.63986412    -0.15100
C1429       C  0.53831023  0.83392161  0.62634300     0.07000
C1430       C  0.51811684  0.86137589  0.61568379    -0.15100
H1431       H  0.46316196  0.88178559  0.60523332     0.11000
H1432       H  0.46348825  0.78667770  0.64870557     0.11000
H1433       H  0.53267050  0.78664260  0.64867802     0.11000
H1434       H  0.53308622  0.88175746  0.60521385     0.11000
C1435       C  0.28632837  0.68046830  0.26218404    -0.15100
C1436       C  0.31862150  0.69111512  0.27901400     0.07000
C1437       C  0.35088312  0.70134748  0.26196798    -0.15100
C1438       C  0.35078066  0.70139345  0.22892686    -0.15100
C1439       C  0.31842004  0.69119320  0.21200416     0.07000
C1440       C  0.28622679  0.68051110  0.22895313    -0.15100
H1441       H  0.26113094  0.67222651  0.27467156     0.11000
H1442       H  0.37629851  0.70957762  0.27415485     0.11000
H1443       H  0.37611556  0.70965762  0.21664537     0.11000
H1444       H  0.26094675  0.67230241  0.21655876     0.11000
C1445       C  0.47749325  0.63732393  0.37627280    -0.15100
C1446       C  0.45735385  0.66391023  0.36366297     0.07000
C1447       C  0.47768206  0.68861765  0.34806746    -0.15100
C1448       C  0.51742335  0.68862217  0.34814537    -0.15100
C1449       C  0.53767023  0.66391919  0.36381971     0.07000
C1450       C  0.51746497  0.63732966  0.37635371    -0.15100
H1451       H  0.46252150  0.61790797  0.38835924     0.11000
H1452       H  0.46289833  0.70916090  0.33767966     0.11000
H1453       H  0.53226087  0.70916175  0.33780411     0.11000
H1454       H  0.53237156  0.61791515  0.38849010     0.11000
C1455       C  0.38175475  0.71592021  0.49400154    -0.15100
C1456       C  0.38001995  0.73386676  0.46560917     0.07000
C1457       C  0.37981502  0.76797570  0.46721521    -0.15100
C1458       C  0.37998720  0.78378904  0.49660907    -0.15100
C1459       C  0.37943452  0.76581061  0.52499517     0.07000
C1460       C  0.38096676  0.73172832  0.52341304    -0.15100
H1461       H  0.38155268  0.68957661  0.49351598     0.11000
H1462       H  0.37833766  0.78240533  0.44576309     0.11000
H1463       H  0.37842520  0.81009519  0.49710758     0.11000
H1464       H  0.38048039  0.71729817  0.54489923     0.11000
C1465       C  0.14402929  0.55057632  0.72911106    -0.15100
C1466       C  0.17689827  0.55943158  0.71214157     0.07000
C1467       C  0.20974870  0.56863656  0.72903306    -0.15100
C1468       C  0.20975614  0.56853980  0.76226505    -0.15100
C1469       C  0.17690376  0.55925147  0.77912691     0.07000
C1470       C  0.14403754  0.55047950  0.76213431    -0.15100
H1471       H  0.11817157  0.54351644  0.71688026     0.11000
H1472       H  0.23546022  0.57573424  0.71659498     0.11000
H1473       H  0.23547371  0.57557275  0.77472431     0.11000
H1474       H  0.11818187  0.54335045  0.77434774     0.11000
C1475       C  0.24223932  0.96120601  0.64016126    -0.15100
C1476       C  0.24831542  0.98495301  0.61678604     0.07000
C1477       C  0.27895731  0.98090555  0.59560386    -0.15100
C1478       C  0.30131468  0.95244691  0.59649876    -0.15100
C1479       C  0.29388740  0.92791997  0.61904430     0.07000
C1480       C  0.26486771  0.93331598  0.64147928    -0.15100
H1481       H  0.21936444  0.96391285  0.65722688     0.11000
H1482       H  0.28447137  0.49898110  0.57748226     0.11000
H1483       H  0.32312148  0.94895890  0.57863728     0.11000
H1484       H  0.25813574  0.91509029  0.65915646     0.11000
C1485       C  0.19408004  0.70235556  0.59617521    -0.15100
C1486       C  0.20068939  0.67845715  0.61950955     0.07000
C1487       C  0.22849475  0.68454974  0.64278490    -0.15100
C1488       C  0.25109816  0.71243064  0.64139736    -0.15100
C1489       C  0.24611554  0.73533976  0.61707540     0.07000
C1490       C  0.21641228  0.73075350  0.59515666    -0.15100
H1491       H  0.17317889  0.69828901  0.57769606     0.11000
H1492       H  0.23442009  0.66680551  0.66112046     0.11000
H1493       H  0.27322048  0.71571526  0.65904084     0.11000
H1494       H  0.21180032  0.74823794  0.57632729     0.11000
C1495       C  0.21099538  0.61200971  0.49283995    -0.15100
C1496       C  0.23004883  0.61121286  0.52220976     0.07000
C1497       C  0.26663739  0.62460882  0.52468162    -0.15100
C1498       C  0.28385965  0.63863592  0.49827056    -0.15100
C1499       C  0.26481988  0.63943362  0.46889660     0.07000
C1500       C  0.22822849  0.62603005  0.46641753    -0.15100
H1501       H  0.18255981  0.60202605  0.49029636     0.11000
H1502       H  0.28169525  0.62474820  0.54710798     0.11000
H1503       H  0.31228972  0.64861467  0.50082863     0.11000
H1504       H  0.21318452  0.62588732  0.44398347     0.11000
C1505       C  0.14444734  0.95358412  0.26213633    -0.15100
C1506       C  0.17633285  0.94231106  0.27904434     0.07000
C1507       C  0.20827204  0.93112623  0.26208991    -0.15100
C1508       C  0.20829750  0.93132339  0.22888865    -0.15100
C1509       C  0.17638340  0.94270937  0.21204864     0.07000
C1510       C  0.14447394  0.95378399  0.22907242    -0.15100
H1511       H  0.11937591  0.96238546  0.27445150     0.11000
H1512       H  0.23321878  0.92218821  0.27446342     0.11000
H1513       H  0.23324644  0.92250994  0.21642712     0.11000
H1514       H  0.11940684  0.96271287  0.21684855     0.11000
C1515       C  0.26609439  0.87202120  0.46542796    -0.15100
C1516       C  0.23176965  0.88918281  0.46829778     0.07000
C1517       C  0.21435753  0.89201991  0.49823589    -0.15100
C1518       C  0.23090165  0.87784504  0.52485435    -0.15100
C1519       C  0.26521482  0.86070193  0.52201617     0.07000
C1520       C  0.28268422  0.85786732  0.49208521    -0.15100
H1521       H  0.27966883  0.86895883  0.44254213     0.11000
H1522       H  0.18770100  0.90502390  0.50107600     0.11000
H1523       H  0.21728445  0.88090932  0.54771636     0.11000
H1524       H  0.30936163  0.84487586  0.48929801     0.11000
C1525       C  0.11488145  0.01826643  0.46776970    -0.15100
C1526       C  0.11668753  0.98417705  0.46628040     0.07000
C1527       C  0.11634257  0.96630707  0.49473087    -0.15100
C1528       C  0.11635353  0.48222007  0.52407460    -0.15100
C1529       C  0.11579205  0.51633294  0.52559966     0.07000
C1530       C  0.11395127  0.53417613  0.49714708    -0.15100
H1531       H  0.11521957  0.03262730  0.44623939     0.11000
H1532       H  0.11813670  0.94000844  0.49432442     0.11000
H1533       H  0.11795170  0.46786307  0.54556190     0.11000
H1534       H  0.11391367  0.56052708  0.49756313     0.11000
C1535       C  0.23057712  0.81674149  0.34897761    -0.15100
C1536       C  0.20171824  0.82226078  0.37151117     0.07000
C1537       C  0.19440367  0.79793505  0.39427055    -0.15100
C1538       C  0.21683684  0.76958331  0.39536524    -0.15100
C1539       C  0.24739226  0.76546121  0.37414354     0.07000
C1540       C  0.25328843  0.78893281  0.35048339    -0.15100
H1541       H  0.23716432  0.83483710  0.33113549     0.11000
H1542       H  0.17269421  0.80154625  0.41218847     0.11000
H1543       H  0.21147179  0.75167268  0.41367460     0.11000
H1544       H  0.27608816  0.78608281  0.33336903     0.11000
C1545       C  0.28005252  0.51894421  0.39428885    -0.15100
C1546       C  0.24873293  0.51521451  0.37379235     0.07000
C1547       C  0.24169756  0.53929213  0.35094520    -0.15100
C1548       C  0.26403688  0.56728142  0.34959109    -0.15100
C1549       C  0.29368739  0.57237703  0.37147592     0.07000
C1550       C  0.30214721  0.54749694  0.39336684    -0.15100
H1551       H  0.28627529  0.00057161  0.41195227     0.11000
H1552       H  0.21825152  0.53680066  0.33439700     0.11000
H1553       H  0.25654869  0.58581218  0.33242562     0.11000
H1554       H  0.32453741  0.55077505  0.41074852     0.11000
C1555       C  0.78485020  0.56710229  0.76205023    -0.15100
C1556       C  0.81792927  0.55871153  0.77903765     0.07000
C1557       C  0.85125250  0.55100881  0.76213455    -0.15100
C1558       C  0.85148627  0.55128412  0.72908742    -0.15100
C1559       C  0.81839104  0.55924376  0.71200012     0.07000
C1560       C  0.78508335  0.56737391  0.72881213    -0.15100
H1561       H  0.75876425  0.57327672  0.77441992     0.11000
H1562       H  0.87731081  0.54463007  0.77444177     0.11000
H1563       H  0.87769999  0.54508929  0.71692499     0.11000
H1564       H  0.75916105  0.57372640  0.71629939     0.11000
C1565       C  0.97771875  0.61283236  0.61608414    -0.15100
C1566       C  0.95752214  0.58583276  0.62777089     0.07000
C1567       C  0.97777912  0.56070832  0.64279123    -0.15100
C1568       C  0.01751982  0.56072752  0.64288401    -0.15100
C1569       C  0.03785048  0.58587687  0.62796889     0.07000
C1570       C  0.01769520  0.61285710  0.61618769    -0.15100
H1571       H  0.96281228  0.63262609  0.60454004     0.11000
H1572       H  0.96296779  0.53984871  0.65253283     0.11000
H1573       H  0.03229218  0.53987940  0.65268691     0.11000
H1574       H  0.03265388  0.63266298  0.60471901     0.11000
C1575       C  0.72884064  0.62454787  0.52445704    -0.15100
C1576       C  0.76546730  0.61123576  0.52194672     0.07000
C1577       C  0.78458776  0.61229781  0.49260628    -0.15100
C1578       C  0.76733927  0.62639975  0.46623268    -0.15100
C1579       C  0.73065557  0.63960793  0.46872536     0.07000
C1580       C  0.71160436  0.63865585  0.49809739    -0.15100
H1581       H  0.71373492  0.62451301  0.54686626     0.11000
H1582       H  0.81307559  0.60243556  0.49003973     0.11000
H1583       H  0.78242077  0.62642478  0.44381412     0.11000
H1584       H  0.68312236  0.64851868  0.50067965     0.11000
C1585       C  0.78038013  0.73122872  0.59561233    -0.15100
C1586       C  0.75016805  0.73552418  0.61712546     0.07000
C1587       C  0.74441105  0.71213003  0.64087589    -0.15100
C1588       C  0.76676150  0.68412753  0.64210324    -0.15100
C1589       C  0.79510332  0.67834623  0.61920379     0.07000
C1590       C  0.80246647  0.70266442  0.59643625    -0.15100
H1591       H  0.78559532  0.74908338  0.57722848     0.11000
H1592       H  0.72186688  0.71513333  0.65820194     0.11000
H1593       H  0.76021912  0.66607289  0.65999948     0.11000
H1594       H  0.82383262  0.69885823  0.57827097     0.11000
C1595       C  0.75325892  0.96147458  0.64039373    -0.15100
C1596       C  0.74705988  0.98509958  0.61692722     0.07000
C1597       C  0.71630279  0.98099530  0.59589445    -0.15100
C1598       C  0.69399004  0.95253543  0.59697919    -0.15100
C1599       C  0.70160777  0.92808733  0.61956041     0.07000
C1600       C  0.73067918  0.93358336  0.64189899    -0.15100
H1601       H  0.77622093  0.96425742  0.65735874     0.11000
H1602       H  0.71068964  0.49899990  0.57772629     0.11000
H1603       H  0.67210441  0.94896187  0.57920657     0.11000
H1604       H  0.73753320  0.91541397  0.65959462     0.11000
C1605       C  0.78671241  0.93139850  0.26224256    -0.15100
C1606       C  0.81843986  0.94312590  0.27911772     0.07000
C1607       C  0.84991883  0.95508683  0.26211387    -0.15100
C1608       C  0.84978317  0.95525156  0.22904177    -0.15100
C1609       C  0.81816499  0.94346005  0.21209548     0.07000
C1610       C  0.78657662  0.93156121  0.22903268    -0.15100
H1611       H  0.76206428  0.92196407  0.27468435     0.11000
H1612       H  0.87478616  0.96439071  0.27436178     0.11000
H1613       H  0.87456576  0.96466190  0.21674744     0.11000
H1614       H  0.76184830  0.92223255  0.21664122     0.11000
C1615       C  0.97765620  0.88791786  0.37498171    -0.15100
C1616       C  0.95751900  0.91543296  0.36438120     0.07000
C1617       C  0.97795719  0.94137081  0.35092390    -0.15100
C1618       C  0.01765944  0.94137436  0.35109409    -0.15100
C1619       C  0.03794299  0.91544705  0.36473647     0.07000
C1620       C  0.01768479  0.88792646  0.37516550    -0.15100
H1621       H  0.96262446  0.86750933  0.38533455     0.11000
H1622       H  0.96329072  0.96272596  0.34209804     0.11000
H1623       H  0.03242365  0.96272716  0.34236917     0.11000
H1624       H  0.03259043  0.86752095  0.38563345     0.11000
C1625       C  0.88222997  0.51772067  0.46772366    -0.15100
C1626       C  0.87965902  0.98367868  0.46621688     0.07000
C1627       C  0.87922702  0.96579281  0.49465349    -0.15100
C1628       C  0.87903145  0.98171346  0.52400153    -0.15100
C1629       C  0.88019523  0.51582404  0.52552668     0.07000
C1630       C  0.88298732  0.53361787  0.49709704    -0.15100
H1631       H  0.88254588  0.53207575  0.44618818     0.11000
H1632       H  0.87686932  0.93952550  0.49420219     0.11000
H1633       H  0.87674723  0.96738579  0.54546832     0.11000
H1634       H  0.88358165  0.55995984  0.49749251     0.11000
C1635       C  0.73016975  0.87248181  0.46604440    -0.15100
C1636       C  0.76444347  0.88970673  0.46874888     0.07000
C1637       C  0.78190819  0.89279815  0.49865274    -0.15100
C1638       C  0.76546603  0.87870850  0.52539509    -0.15100
C1639       C  0.73127171  0.86135748  0.52266185     0.07000
C1640       C  0.71374820  0.85837524  0.49277106    -0.15100
H1641       H  0.71654428  0.86925004  0.44320328     0.11000
H1642       H  0.80852609  0.90590027  0.50134679     0.11000
H1643       H  0.77909235  0.88192075  0.54823770     0.11000
H1644       H  0.68715375  0.84525522  0.49004528     0.11000
C1645       C  0.75396482  0.53959474  0.35130202    -0.15100
C1646       C  0.74668620  0.51539868  0.37397521     0.07000
C1647       C  0.71489122  0.51885108  0.39402618    -0.15100
C1648       C  0.69263639  0.54731138  0.39295215    -0.15100
C1649       C  0.70140875  0.57235686  0.37132832     0.07000
C1650       C  0.73146495  0.56747164  0.34977251    -0.15100
H1651       H  0.77772916  0.53729722  0.33503767     0.11000
H1652       H  0.70840240  0.00033920  0.41148837     0.11000
H1653       H  0.66987823  0.55039876  0.41003927     0.11000
H1654       H  0.73917957  0.58610990  0.33278943     0.11000
C1655       C  0.76343278  0.81745388  0.34943301    -0.15100
C1656       C  0.79307821  0.82251540  0.37135278     0.07000
C1657       C  0.80110983  0.79774458  0.39347647    -0.15100
C1658       C  0.77872353  0.76934444  0.39451763    -0.15100
C1659       C  0.74749658  0.76560796  0.37390271     0.07000
C1660       C  0.74079024  0.78960557  0.35090196    -0.15100
H1661       H  0.75623079  0.83590398  0.33210607     0.11000
H1662       H  0.82343602  0.80098920  0.41092079     0.11000
H1663       H  0.78472733  0.75104682  0.41231838     0.11000
H1664       H  0.71743985  0.78712657  0.33426273     0.11000
loop_ 
_geom_bond_atom_site_label_1 
_geom_bond_atom_site_label_2 
_geom_bond_distance 
_geom_bond_site_symmetry_2 
_ccdc_geom_bond_type 
O1           C16   1.257       .  A
O1           Al9   1.883       .  S
C2           O12   1.265       .  A
C2            O3   1.268       .  A
C2          C794   1.481       .  S
O3           Al5   1.932       .  S
O4            C6   1.255       .  A
O4           Al5   1.858       .  S
Al5          O13   1.908       .  S
Al5          O15   1.942       .  S
Al5          O14   1.784       .  S
C6           O19   1.269       .  A
C6          C804   1.467       .  S
O7           C17   1.258       .  A
O7           Al9   1.910       .  S
O8           C21   1.264       .  A
O8          Al18   1.883       .  S
Al9          O22   1.936       .  S
Al9          O19   1.933       .  S
Al9          O14   1.776       .  S
O10          C17   1.261       .  A
O10         Al18   1.913       .  S
O11          C20   1.265       .  A
O11         Al18   1.913       .  S
O12         Al18   1.903       .  S
O13          C20   1.264       .  A
O14         Al18   1.775       .  S
O15          C16   1.265       .  A
C16         C824   1.488       .  S
C17        C1646   1.482       .  S
C20         C784   1.480       .  S
C21          O22   1.271       .  A
C21         C774   1.480       .  S
O23          C38   1.258       .  A
O23         Al31   1.884       .  S
C24          O34   1.265       .  A
C24          O25   1.268       .  A
C24         C797   1.483       .  S
O25         Al27   1.932       .  S
O26          C28   1.256       .  A
O26         Al27   1.860       .  S
Al27         O35   1.905       .  S
Al27         O37   1.938       .  S
Al27         O36   1.784       .  S
C28          O41   1.268       .  A
C28         C744   1.468       .  S
O29          C39   1.259       .  A
O29         Al31   1.913       .  S
O30          C43   1.264       .  A
O30         Al40   1.883       .  S
Al31         O44   1.938       .  S
Al31         O41   1.930       .  S
Al31         O36   1.775       .  S
O32          C39   1.262       .  A
O32         Al40   1.918       .  S
O33          C42   1.265       .  A
O33         Al40   1.915       .  S
O34         Al40   1.903       .  S
O35          C42   1.263       .  A
O36         Al40   1.774       .  S
O37          C38   1.264       .  A
C38         C757   1.487       .  S
C39        C1596   1.484   1_545  S
C42         C734   1.479       .  S
C43          O44   1.270       .  A
C43         C727   1.481       .  S
O45          C60   1.270       .  A
O45         Al53   1.935       .  S
C46          O56   1.268       .  A
C46          O47   1.265       .  A
C46         C694   1.482       .  S
O47         Al49   1.904       .  S
O48          C50   1.261       .  A
O48         Al49   1.913       .  S
Al49         O57   1.912       .  S
Al49         O59   1.884       .  S
Al49         O58   1.774       .  S
C50          O63   1.259       .  A
C50        C1546   1.481       .  S
O51          C61   1.268       .  A
O51         Al53   1.932       .  S
O52          C65   1.265       .  A
O52         Al62   1.940       .  S
Al53         O66   1.884       .  S
Al53         O63   1.911       .  S
Al53         O58   1.777       .  S
O54          C61   1.255       .  A
O54         Al62   1.858       .  S
O55          C64   1.264       .  A
O55         Al62   1.909       .  S
O56         Al62   1.932       .  S
O57          C64   1.265       .  A
O58         Al62   1.783       .  S
O59          C60   1.264       .  A
C60         C674   1.479       .  S
C61         C684   1.467       .  S
C64         C787   1.480       .  S
C65          O66   1.257       .  A
C65         C704   1.488       .  S
O67          C82   1.270       .  A
O67         Al75   1.937       .  S
C68          O78   1.268       .  A
C68          O69   1.266       .  A
C68         C697   1.482       .  S
O69         Al71   1.901       .  S
O70          C72   1.262       .  A
O70         Al71   1.920       .  S
Al71         O79   1.916       .  S
Al71         O81   1.881       .  S
Al71         O80   1.774       .  S
C72          O85   1.259       .  A
C72        C1476   1.486   1_545  S
O73          C83   1.268       .  A
O73         Al75   1.928       .  S
O74          C87   1.264       .  A
O74         Al84   1.937       .  S
Al75         O88   1.885       .  S
Al75         O85   1.914       .  S
Al75         O80   1.776       .  S
O76          C83   1.256       .  A
O76         Al84   1.859       .  S
O77          C86   1.263       .  A
O77         Al84   1.905       .  S
O78         Al84   1.933       .  S
O79          C86   1.265       .  A
O80         Al84   1.784       .  S
O81          C82   1.264       .  A
C82         C634   1.479       .  S
C83         C664   1.468       .  S
C86         C737   1.479       .  S
C87          O88   1.258       .  A
C87         C654   1.487       .  S
O89         C104   1.257       .  A
O89         Al97   1.882       .  S
C90         O100   1.266       .  A
C90          O91   1.268       .  A
C90         C624   1.481       .  S
O91         Al93   1.931       .  S
O92          C94   1.256       .  A
O92         Al93   1.860       .  S
Al93        O101   1.904       .  S
Al93        O103   1.939       .  S
Al93        O102   1.783       .  S
C94         O107   1.268       .  A
C94         C667   1.468       .  S
O95         C105   1.259       .  A
O95         Al97   1.910       .  S
O96         C109   1.264       .  A
O96        Al106   1.882       .  S
Al97        O110   1.937       .  S
Al97        O107   1.930       .  S
Al97        O102   1.775       .  S
O98         C105   1.262       .  A
O98        Al106   1.919       .  S
O99         C108   1.265       .  A
O99        Al106   1.915       .  S
O100       Al106   1.902       .  S
O101        C108   1.263       .  A
O102       Al106   1.774       .  S
O103        C104   1.264       .  A
C104        C717   1.486       .  S
C105        C707   1.482       .  S
C108        C614   1.478       .  S
C109        O110   1.270       .  A
C109        C604   1.480       .  S
O111        C126   1.258       .  A
O111       Al119   1.885       .  S
C112        O122   1.266       .  A
C112        O113   1.268       .  A
C112        C627   1.481       .  S
O113       Al115   1.932       .  S
O114        C116   1.255       .  A
O114       Al115   1.859       .  S
Al115       O123   1.908       .  S
Al115       O125   1.946       .  S
Al115       O124   1.783       .  S
C116        O129   1.269       .  A
C116        C687   1.467       .  S
O117        C127   1.259       .  A
O117       Al119   1.911       .  S
O118        C131   1.264       .  A
O118       Al128   1.883       .  S
Al119       O132   1.937       .  S
Al119       O129   1.932       .  S
Al119       O124   1.775       .  S
O120        C127   1.261       .  A
O120       Al128   1.916       .  S
O121        C130   1.265       .  A
O121       Al128   1.913       .  S
O122       Al128   1.904       .  S
O123        C130   1.264       .  A
O124       Al128   1.775       .  S
O125        C126   1.266       .  A
C126        C647   1.491       .  S
C127        C657   1.481       .  S
C130        C594   1.480       .  S
C131        O132   1.271       .  A
C131        C584   1.480       .  S
O133        C148   1.270       .  A
O133       Al141   1.937       .  S
C134        O144   1.268       .  A
C134        O135   1.265       .  A
C134        C574   1.481       .  S
O135       Al137   1.900       .  S
O136        C138   1.262       .  A
O136       Al137   1.918       .  S
Al137       O145   1.915       .  S
Al137       O147   1.882       .  S
Al137       O146   1.774       .  S
C138        O151   1.259       .  A
C138        C827   1.484       .  S
O139        C149   1.268       .  A
O139       Al141   1.930       .  S
O140        C153   1.265       .  A
O140       Al150   1.939       .  S
Al141       O154   1.881       .  S
Al141       O151   1.911       .  S
Al141       O146   1.775       .  S
O142        C149   1.256       .  A
O142       Al150   1.859       .  S
O143        C152   1.263       .  A
O143       Al150   1.905       .  S
O144       Al150   1.932       .  S
O145        C152   1.265       .  A
O146       Al150   1.783       .  S
O147        C148   1.264       .  A
C148        C564   1.480       .  S
C149        C747   1.468       .  S
C152        C617   1.478       .  S
C153        O154   1.257       .  A
C153        C817   1.486       .  S
O155        C170   1.271       .  A
O155       Al163   1.937       .  S
C156        O166   1.268       .  A
C156        O157   1.265       .  A
C156        C577   1.480       .  S
O157       Al159   1.903       .  S
O158        C160   1.261       .  A
O158       Al159   1.914       .  S
Al159       O167   1.914       .  S
Al159       O169   1.883       .  S
Al159       O168   1.775       .  S
C160        O173   1.259       .  A
C160        C754   1.481       .  S
O161        C171   1.269       .  A
O161       Al163   1.934       .  S
O162        C175   1.265       .  A
O162       Al172   1.942       .  S
Al163       O176   1.886       .  S
Al163       O173   1.912       .  S
Al163       O168   1.776       .  S
O164        C171   1.255       .  A
O164       Al172   1.857       .  S
O165        C174   1.264       .  A
O165       Al172   1.906       .  S
O166       Al172   1.930       .  S
O167        C174   1.265       .  A
O168       Al172   1.783       .  S
O169        C170   1.264       .  A
C170        C554   1.481       .  S
C171        C807   1.467       .  S
C174        C597   1.479       .  S
C175        O176   1.258       .  A
C175        C767   1.489       .  S
O177        C192   1.271       .  A
O177       Al185   1.938       .  S
C178        O188   1.268       .  A
C178        O179   1.265       .  A
C178        C514   1.479       .  S
O179       Al181   1.900       .  S
O180        C182   1.261       .  A
O180       Al181   1.915       .  S
Al181       O189   1.913       .  S
Al181       O191   1.881       .  S
Al181       O190   1.775       .  S
C182        O195   1.258       .  A
C182       C1366   1.482       .  S
O183        C193   1.269       .  A
O183       Al185   1.933       .  S
O184        C197   1.264       .  A
O184       Al194   1.938       .  S
Al185       O198   1.883       .  S
Al185       O195   1.911       .  S
Al185       O190   1.775       .  S
O186        C193   1.256       .  A
O186       Al194   1.861       .  S
O187        C196   1.264       .  A
O187       Al194   1.907       .  S
O188       Al194   1.930       .  S
O189        C196   1.265       .  A
O190       Al194   1.784       .  S
O191        C192   1.264       .  A
C192        C777   1.480       .  S
C193        C527   1.470       .  S
C196        C504   1.479       .  S
C197        O198   1.257       .  A
C197        C544   1.487       .  S
O199        C214   1.270       .  A
O199       Al207   1.938       .  S
C200        O210   1.267       .  A
C200        O201   1.265       .  A
C200        C517   1.480       .  S
O201       Al203   1.904       .  S
O202        C204   1.262       .  A
O202       Al203   1.916       .  S
Al203       O211   1.917       .  S
Al203       O213   1.882       .  S
Al203       O212   1.773       .  S
C204        O217   1.259       .  A
C204       C1329   1.482   1_545  S
O205        C215   1.268       .  A
O205       Al207   1.931       .  S
O206        C219   1.265       .  A
O206       Al216   1.939       .  S
Al207       O220   1.885       .  S
Al207       O217   1.911       .  S
Al207       O212   1.777       .  S
O208        C215   1.256       .  A
O208       Al216   1.864       .  S
O209        C218   1.264       .  A
O209       Al216   1.908       .  S
O210       Al216   1.928       .  S
O211        C218   1.266       .  A
O212       Al216   1.782       .  S
O213        C214   1.264       .  A
C214        C724   1.481       .  S
C215        C474   1.468       .  S
C218        C464   1.481       .  S
C219        O220   1.258       .  A
C219        C484   1.487       .  S
O221        C236   1.257       .  A
O221       Al229   1.881       .  S
C222        O232   1.266       .  A
C222        O223   1.268       .  A
C222        C434   1.480       .  S
O223       Al225   1.931       .  S
O224        C226   1.256       .  A
O224       Al225   1.860       .  S
Al225       O233   1.907       .  S
Al225       O235   1.938       .  S
Al225       O234   1.784       .  S
C226        O239   1.269       .  A
C226        C424   1.469       .  S
O227        C237   1.259       .  A
O227       Al229   1.912       .  S
O228        C241   1.264       .  A
O228       Al238   1.882       .  S
Al229       O242   1.937       .  S
Al229       O239   1.934       .  S
Al229       O234   1.775       .  S
O230        C237   1.261       .  A
O230       Al238   1.918       .  S
O231        C240   1.265       .  A
O231       Al238   1.915       .  S
O232       Al238   1.902       .  S
O233        C240   1.263       .  A
O234       Al238   1.775       .  S
O235        C236   1.264       .  A
C236        C444   1.486       .  S
C237       C1286   1.483       .  S
C240        C507   1.479       .  S
C241        O242   1.271       .  A
C241        C677   1.480       .  S
O243        C258   1.258       .  A
O243       Al251   1.883       .  S
C244        O254   1.266       .  A
C244        O245   1.268       .  A
C244        C437   1.482       .  S
O245       Al247   1.931       .  S
O246        C248   1.256       .  A
O246       Al247   1.862       .  S
Al247       O255   1.909       .  S
Al247       O257   1.941       .  S
Al247       O256   1.783       .  S
C248        O261   1.268       .  A
C248        C414   1.467       .  S
O249        C259   1.259       .  A
O249       Al251   1.912       .  S
O250        C263   1.264       .  A
O250       Al260   1.881       .  S
Al251       O264   1.936       .  S
Al251       O261   1.928       .  S
Al251       O256   1.777       .  S
O252        C259   1.262       .  A
O252       Al260   1.916       .  S
O253        C262   1.265       .  A
O253       Al260   1.916       .  S
O254       Al260   1.904       .  S
O255        C262   1.264       .  A
O256       Al260   1.773       .  S
O257        C258   1.265       .  A
C258        C404   1.487       .  S
C259       C1226   1.482   1_545  S
C262        C467   1.481       .  S
C263        O264   1.270       .  A
C263        C637   1.479       .  S
O265        C280   1.270       .  A
O265       Al273   1.936       .  S
C266        O276   1.268       .  A
C266        O267   1.265       .  A
C266        C384   1.481       .  S
O267       Al269   1.903       .  S
O268        C270   1.261       .  A
O268       Al269   1.914       .  S
Al269       O277   1.914       .  S
Al269       O279   1.882       .  S
Al269       O278   1.773       .  S
C270        O283   1.259       .  A
C270        C447   1.483       .  S
O271        C281   1.268       .  A
O271       Al273   1.930       .  S
O272        C285   1.265       .  A
O272       Al282   1.941       .  S
Al273       O286   1.883       .  S
Al273       O283   1.911       .  S
Al273       O278   1.776       .  S
O274        C281   1.256       .  A
O274       Al282   1.861       .  S
O275        C284   1.264       .  A
O275       Al282   1.908       .  S
O276       Al282   1.930       .  S
O277        C284   1.265       .  A
O278       Al282   1.783       .  S
O279        C280   1.264       .  A
C280        C607   1.480       .  S
C281        C417   1.467       .  S
C284        C374   1.480       .  S
C285        O286   1.257       .  A
C285        C457   1.487       .  S
O287        C302   1.271       .  A
O287       Al295   1.940       .  S
C288        O298   1.268       .  A
C288        O289   1.265       .  A
C288        C387   1.479       .  S
O289       Al291   1.900       .  S
O290        C292   1.260       .  A
O290       Al291   1.914       .  S
Al291       O299   1.912       .  S
Al291       O301   1.881       .  S
Al291       O300   1.775       .  S
C292        O305   1.259       .  A
C292        C407   1.483       .  S
O293        C303   1.269       .  A
O293       Al295   1.934       .  S
O294        C307   1.264       .  A
O294       Al304   1.936       .  S
Al295       O308   1.884       .  S
Al295       O305   1.914       .  S
Al295       O300   1.776       .  S
O296        C303   1.256       .  A
O296       Al304   1.860       .  S
O297        C306   1.263       .  A
O297       Al304   1.908       .  S
O298       Al304   1.930       .  S
O299        C306   1.264       .  A
O300       Al304   1.784       .  S
O301        C302   1.264       .  A
C302        C587   1.480       .  S
C303        C427   1.470       .  S
C306        C364   1.480       .  S
C307        O308   1.258       .  A
C307        C397   1.487       .  S
O309        C324   1.257       .  A
O309       Al317   1.881       .  S
C310        O320   1.265       .  A
C310        O311   1.268       .  A
C310        C354   1.480       .  S
O311       Al313   1.929       .  S
O312        C314   1.256       .  A
O312       Al313   1.864       .  S
Al313       O321   1.909       .  S
Al313       O323   1.941       .  S
Al313       O322   1.783       .  S
C314        O327   1.268       .  A
C314        C477   1.468       .  S
O315        C325   1.259       .  A
O315       Al317   1.911       .  S
O316        C329   1.263       .  A
O316       Al326   1.882       .  S
Al317       O330   1.936       .  S
Al317       O327   1.931       .  S
Al317       O322   1.776       .  S
O318        C325   1.262       .  A
O318       Al326   1.916       .  S
O319        C328   1.265       .  A
O319       Al326   1.914       .  S
O320       Al326   1.902       .  S
O321        C328   1.264       .  A
O322       Al326   1.772       .  S
O323        C324   1.265       .  A
C324        C537   1.486       .  S
C325        C547   1.483       .  S
C328        C377   1.481       .  S
C329        O330   1.270       .  A
C329        C567   1.480       .  S
O331        C346   1.258       .  A
O331       Al339   1.885       .  S
C332        O342   1.265       .  A
C332        O333   1.267       .  A
C332        C357   1.477       .  S
O333       Al335   1.927       .  S
O334        C336   1.256       .  A
O334       Al335   1.862       .  S
Al335       O343   1.908       .  S
Al335       O345   1.934       .  S
Al335       O344   1.785       .  S
C336        O349   1.269       .  A
C336        C524   1.470       .  S
O337        C347   1.259       .  A
O337       Al339   1.915       .  S
O338        C351   1.264       .  A
O338       Al348   1.882       .  S
Al339       O352   1.938       .  S
Al339       O349   1.932       .  S
Al339       O344   1.776       .  S
O340        C347   1.260       .  A
O340       Al348   1.914       .  S
O341        C350   1.264       .  A
O341       Al348   1.912       .  S
O342       Al348   1.900       .  S
O343        C350   1.263       .  A
O344       Al348   1.775       .  S
O345        C346   1.264       .  A
C346        C494   1.486       .  S
C347        C487   1.483       .  S
C350        C367   1.480       .  S
C351        O352   1.271       .  A
C351        C557   1.481       .  S
C353        C354   1.407   1_556  A
C353        C358   1.398       .  A
C353        H359   1.083       .  S
C354        C355   1.404       .  A
C355        C356   1.399   1_554  A
C355        H360   1.083       .  S
C356        C357   1.407       .  A
C356        H361   1.083       .  S
C357        C358   1.402       .  A
C358        H362   1.083       .  S
C363        C364   1.405       .  A
C363        C368   1.393       .  A
C363        H369   1.083       .  S
C364        C365   1.406       .  A
C365        C366   1.403       .  A
C365        H370   1.083       .  S
C366        C367   1.406       .  A
C366        H371   1.082       .  S
C367        C368   1.405       .  A
C368        H372   1.083       .  S
C373        C374   1.404       .  A
C373        C378   1.393       .  A
C373        H379   1.083       .  S
C374        C375   1.407       .  A
C375        C376   1.404       .  A
C375        H380   1.082       .  S
C376        C377   1.406       .  A
C376        H381   1.083       .  S
C377        C378   1.405       .  A
C378        H382   1.083       .  S
C383        C384   1.404       .  A
C383        C388   1.400   1_554  A
C383        H389   1.083       .  S
C384        C385   1.407   1_554  A
C385        C386   1.398       .  A
C385        H390   1.083       .  S
C386        C387   1.403       .  A
C386        H391   1.083       .  S
C387        C388   1.407       .  A
C388        H392   1.084       .  S
C393        C394   1.403       .  A
C393        C398   1.394       .  A
C393        H399   1.083       .  S
C394       C1091   1.482       .  S
C394        C395   1.406       .  A
C395        C396   1.407       .  A
C395       H1232   1.083       .  S
C396        C397   1.410       .  A
C396        H401   1.083       .  S
C397        C398   1.406       .  A
C398        H402   1.083       .  S
H400       C1227   1.083       .  S
C403        C404   1.410       .  A
C403        C408   1.408       .  A
C403        H409   1.083       .  S
C404        C405   1.406       .  A
C405        C406   1.394       .  A
C405        H410   1.083       .  S
C406        C407   1.403       .  A
C406        H411   1.083       .  S
C407        C408   1.406       .  A
C408        H412   1.083       .  S
C413        C414   1.401       .  A
C413        C418   1.392       .  A
C413        H419   1.083       .  S
C414        C415   1.407       .  A
C415        C416   1.392   1_556  A
C415        H420   1.084   1_556  S
C416        C417   1.401       .  A
C416        H421   1.083       .  S
C417        C418   1.407   1_554  A
C418        H422   1.084       .  S
C423        C424   1.408   1_556  A
C423        C428   1.393       .  A
C423        H429   1.083       .  S
C424        C425   1.400       .  A
C425        C426   1.393   1_554  A
C425        H430   1.083       .  S
C426        C427   1.408       .  A
C426        H431   1.084   1_556  S
C427        C428   1.400       .  A
C428        H432   1.083       .  S
C433        C434   1.407   1_556  A
C433        C438   1.401       .  A
C433        H439   1.083       .  S
C434       C1267   1.403       .  A
C435        C436   1.399   1_554  A
C435       C1266   1.403   1_545  A
C435        H440   1.083       .  S
C436        C437   1.407       .  A
C436        H441   1.083       .  S
C437       C1270   1.404   1_545  A
C438       C1269   1.404       .  A
C438        H442   1.083       .  S
C443        C444   1.406       .  A
C443        C448   1.393       .  A
C443        H449   1.083       .  S
C444        C445   1.409       .  A
C445        C446   1.407       .  A
C445        H450   1.083       .  S
C446        C447   1.407       .  A
C446        H451   1.083       .  S
C447        C448   1.403       .  A
C448        H452   1.083       .  S
C453        C454   1.403       .  A
C453        C458   1.395       .  A
C453        H459   1.084       .  S
C454       C1069   1.483   1_545  S
C454        C455   1.406       .  A
C455        C456   1.407       .  A
C455       H1292   1.083       .  S
C456        C457   1.409       .  A
C456        H461   1.083       .  S
C457        C458   1.406       .  A
C458        H462   1.083       .  S
H460       C1287   1.083       .  S
C463        C464   1.405       .  A
C463        C468   1.394   1_655  A
C463        H469   1.083       .  S
C464        C465   1.406       .  A
C465        C466   1.404   1_655  A
C465        H470   1.083       .  S
C466        C467   1.406       .  A
C466        H471   1.083       .  S
C467        C468   1.405       .  A
C468        H472   1.083       .  S
C473        C474   1.407       .  A
C473        C478   1.393   1_556  A
C473        H479   1.084   1_556  S
C474        C475   1.401       .  A
C475        C476   1.393       .  A
C475        H480   1.083       .  S
C476        C477   1.407   1_556  A
C476        H481   1.084       .  S
C477        C478   1.401       .  A
C478        H482   1.083       .  S
C483        C484   1.406       .  A
C483        C488   1.395       .  A
C483        H489   1.083       .  S
C484        C485   1.410       .  A
C485        C486   1.407       .  A
C485        H490   1.083       .  S
C486        C487   1.406       .  A
C486        H491   1.083       .  S
C487        C488   1.404       .  A
C488        H492   1.083       .  S
C493        C494   1.406       .  A
C493        C498   1.394       .  A
C493        H499   1.083       .  S
C494        C495   1.410       .  A
C495        C496   1.407       .  A
C495        H500   1.083       .  S
C496        C497   1.406       .  A
C496       H1333   1.083       .  S
C497       C1036   1.482       .  S
C497        C498   1.403       .  A
C498        H502   1.083       .  S
H501       C1328   1.083       .  S
C503        C504   1.406       .  A
C503        C508   1.402   1_655  A
C503        H509   1.083       .  S
C504        C505   1.405       .  A
C505        C506   1.394   1_655  A
C505        H510   1.083       .  S
C506        C507   1.405       .  A
C506        H511   1.083       .  S
C507        C508   1.406       .  A
C508        H512   1.083       .  S
C513        C518   1.398   1_554  A
C513       C1346   1.403   1_545  A
C513        H519   1.083       .  S
C514        C515   1.407   1_554  A
C514       C1345   1.403       .  A
C515        C516   1.400       .  A
C515        H520   1.083       .  S
C516       C1349   1.404       .  A
C516        H521   1.083       .  S
C517        C518   1.407       .  A
C517       C1348   1.404   1_545  A
C518        H522   1.083       .  S
C523        C524   1.401       .  A
C523        C528   1.393       .  A
C523        H529   1.083       .  S
C524        C525   1.408       .  A
C525        C526   1.393   1_556  A
C525        H530   1.083   1_556  S
C526        C527   1.401       .  A
C526        H531   1.083       .  S
C527        C528   1.408   1_554  A
C528        H532   1.084       .  S
C533        C534   1.406       .  A
C533        C538   1.407       .  A
C533       H1371   1.083       .  S
C534       C1014   1.482   1_545  S
C534        C535   1.403       .  A
C535        C536   1.393       .  A
C535        H540   1.083       .  S
C536        C537   1.406       .  A
C536        H541   1.083       .  S
C537        C538   1.409       .  A
C538        H542   1.083       .  S
H539       C1365   1.083       .  S
C543        C544   1.409       .  A
C543        C548   1.407       .  A
C543        H549   1.083       .  S
C544        C545   1.406       .  A
C545        C546   1.393       .  A
C545        H550   1.083       .  S
C546        C547   1.403       .  A
C546        H551   1.083       .  S
C547        C548   1.407       .  A
C548        H552   1.083       .  S
C553        C554   1.405       .  A
C553        C558   1.395       .  A
C553        H559   1.083       .  S
C554        C555   1.406       .  A
C555        C556   1.401       .  A
C555        H560   1.083       .  S
C556        C557   1.406       .  A
C556        H561   1.083       .  S
C557        C558   1.405       .  A
C558        H562   1.083       .  S
C563        C564   1.406       .  A
C563        C568   1.401       .  A
C563        H569   1.083       .  S
C564        C565   1.405       .  A
C565        C566   1.393       .  A
C565        H570   1.083       .  S
C566        C567   1.405       .  A
C566        H571   1.083       .  S
C567        C568   1.406       .  A
C568        H572   1.083       .  S
C573        C574   1.404       .  A
C573        C578   1.399       .  A
C573        H579   1.083       .  S
C574        C575   1.407       .  A
C575        C576   1.400       .  A
C575        H580   1.083       .  S
C576        C577   1.404       .  A
C576        H581   1.083       .  S
C577        C578   1.407       .  A
C578        H582   1.083       .  S
C583        C584   1.405       .  A
C583        C588   1.394       .  A
C583        H589   1.083       .  S
C584        C585   1.406       .  A
C585        C586   1.401       .  A
C585        H590   1.083       .  S
C586        C587   1.406       .  A
C586        H591   1.083       .  S
C587        C588   1.405       .  A
C588        H592   1.083       .  S
C593        C594   1.406       .  A
C593        C598   1.403       .  A
C593        H599   1.082       .  S
C594        C595   1.405       .  A
C595        C596   1.393       .  A
C595        H600   1.083       .  S
C596        C597   1.404       .  A
C596        H601   1.083       .  S
C597        C598   1.406       .  A
C598        H602   1.083       .  S
C603        C604   1.406       .  A
C603        C608   1.401       .  A
C603        H609   1.083       .  S
C604        C605   1.405       .  A
C605        C606   1.393       .  A
C605        H610   1.083       .  S
C606        C607   1.405       .  A
C606        H611   1.083       .  S
C607        C608   1.406       .  A
C608        H612   1.083       .  S
C613        C614   1.406       .  A
C613        C618   1.402       .  A
C613        H619   1.083       .  S
C614        C615   1.404       .  A
C615        C616   1.394       .  A
C615        H620   1.083       .  S
C616        C617   1.404       .  A
C616        H621   1.083       .  S
C617        C618   1.406       .  A
C618        H622   1.083       .  S
C623        C624   1.407       .  A
C623        C628   1.400       .  A
C623        H629   1.083       .  S
C624        C625   1.404       .  A
C625        C626   1.400       .  A
C625        H630   1.083       .  S
C626        C627   1.407       .  A
C626        H631   1.083       .  S
C627        C628   1.404       .  A
C628        H632   1.083       .  S
C633        C634   1.405       .  A
C633        C638   1.392       .  A
C633        H639   1.083       .  S
C634        C635   1.406       .  A
C635        C636   1.401       .  A
C635        H640   1.083       .  S
C636        C637   1.406       .  A
C636        H641   1.083       .  S
C637        C638   1.404       .  A
C638        H642   1.083       .  S
C643        C644   1.403       .  A
C643        C648   1.395       .  A
C643        H649   1.083       .  S
C644        C904   1.486       .  S
C644        C645   1.407       .  A
C645        C646   1.409       .  A
C645       H1482   1.083       .  S
C646        C647   1.410       .  A
C646        H651   1.083       .  S
C647        C648   1.407       .  A
C648        H652   1.083       .  S
H650       C1477   1.083       .  S
C653        C654   1.410       .  A
C653        C658   1.406       .  A
C653        H659   1.083       .  S
C654        C655   1.406       .  A
C655        C656   1.395       .  A
C655        H660   1.083       .  S
C656        C657   1.403       .  A
C656        H661   1.083       .  S
C657        C658   1.405       .  A
C658        H662   1.083       .  S
C663        C664   1.408       .  A
C663        C668   1.392       .  A
C663        H669   1.084       .  S
C664        C665   1.400       .  A
C665        C666   1.392       .  A
C665        H670   1.083       .  S
C666        C667   1.408       .  A
C666        H671   1.084       .  S
C667        C668   1.400       .  A
C668        H672   1.083       .  S
C673        C674   1.405       .  A
C673        C678   1.394       .  A
C673        H679   1.083       .  S
C674        C675   1.406       .  A
C675        C676   1.400       .  A
C675        H680   1.083       .  S
C676        C677   1.406       .  A
C676        H681   1.083       .  S
C677        C678   1.405       .  A
C678        H682   1.083       .  S
C683        C684   1.400       .  A
C683        C688   1.393       .  A
C683        H689   1.083       .  S
C684        C685   1.407       .  A
C685        C686   1.391       .  A
C685        H690   1.083       .  S
C686        C687   1.400       .  A
C686        H691   1.083       .  S
C687        C688   1.408       .  A
C688        H692   1.084       .  S
C693        C694   1.404       .  A
C693       C1530   1.401       .  A
C693        H699   1.083       .  S
C694        C695   1.407       .  A
C695       C1528   1.400       .  A
C695        H700   1.083       .  S
C696        C697   1.404   1_565  A
C696       C1527   1.400       .  A
C696        H701   1.083       .  S
C697        C698   1.408       .  A
C698       C1525   1.401       .  A
C698        H702   1.083       .  S
C703        C704   1.406       .  A
C703        C708   1.395       .  A
C703        H709   1.083       .  S
C704        C705   1.409       .  A
C705        C706   1.407       .  A
C705        H710   1.083       .  S
C706        C707   1.406       .  A
C706        H711   1.083       .  S
C707        C708   1.403       .  A
C708        H712   1.083       .  S
C713        C714   1.406       .  A
C713        C718   1.407       .  A
C713       H1551   1.083       .  S
C714        C882   1.481   1_545  S
C714        C715   1.403       .  A
C715        C716   1.393       .  A
C715        H720   1.083       .  S
C716        C717   1.406       .  A
C716        H721   1.083       .  S
C717        C718   1.409       .  A
C718        H722   1.083       .  S
H719       C1545   1.083       .  S
C723        C724   1.406       .  A
C723        C728   1.402       .  A
C723        H729   1.083       .  S
C724        C725   1.405       .  A
C725        C726   1.393       .  A
C725        H730   1.083       .  S
C726        C727   1.405       .  A
C726        H731   1.083       .  S
C727        C728   1.407       .  A
C728        H732   1.083       .  S
C733        C734   1.406       .  A
C733        C738   1.402   1_655  A
C733        H739   1.083       .  S
C734        C735   1.404       .  A
C735        C736   1.394   1_655  A
C735        H740   1.083       .  S
C736        C737   1.404       .  A
C736        H741   1.083       .  S
C737        C738   1.406       .  A
C738        H742   1.082       .  S
C743        C744   1.400       .  A
C743        C748   1.392       .  A
C743        H749   1.083       .  S
C744        C745   1.408       .  A
C745        C746   1.392       .  A
C745        H750   1.084       .  S
C746        C747   1.400       .  A
C746        H751   1.083       .  S
C747        C748   1.408       .  A
C748        H752   1.084       .  S
C753        C754   1.406       .  A
C753        C758   1.407       .  A
C753        H759   1.083       .  S
C754        C755   1.403       .  A
C755        C756   1.394       .  A
C755        H760   1.083       .  S
C756        C757   1.406       .  A
C756        H761   1.083       .  S
C757        C758   1.410       .  A
C758        H762   1.083       .  S
C763        C764   1.403       .  A
C763        C768   1.395       .  A
C763        H769   1.083       .  S
C764        C871   1.484       .  S
C764        C765   1.407       .  A
C765        C766   1.408       .  A
C765       H1602   1.083       .  S
C766        C767   1.410       .  A
C766        H771   1.083       .  S
C767        C768   1.406       .  A
C768        H772   1.083       .  S
H770       C1597   1.083       .  S
C773        C774   1.406       .  A
C773        C778   1.400       .  A
C773        H779   1.083       .  S
C774        C775   1.405       .  A
C775        C776   1.395       .  A
C775        H780   1.083       .  S
C776        C777   1.405       .  A
C776        H781   1.083       .  S
C777        C778   1.406       .  A
C778        H782   1.083       .  S
C783        C784   1.406       .  A
C783        C788   1.404   1_655  A
C783        H789   1.083       .  S
C784        C785   1.404       .  A
C785        C786   1.392   1_655  A
C785        H790   1.083       .  S
C786        C787   1.405       .  A
C786        H791   1.083       .  S
C787        C788   1.406       .  A
C788        H792   1.083       .  S
C793        C798   1.401       .  A
C793       C1626   1.404   1_545  A
C793        H799   1.083       .  S
C794        C795   1.407       .  A
C794       C1625   1.404       .  A
C795        C796   1.400       .  A
C795        H800   1.083       .  S
C796       C1629   1.404       .  A
C796        H801   1.083       .  S
C797        C798   1.408       .  A
C797       C1628   1.404   1_545  A
C798        H802   1.083       .  S
C803        C804   1.400       .  A
C803        C808   1.392       .  A
C803        H809   1.083       .  S
C804        C805   1.408       .  A
C805        C806   1.393       .  A
C805        H810   1.084       .  S
C806        C807   1.400       .  A
C806        H811   1.083       .  S
C807        C808   1.408       .  A
C808        H812   1.084       .  S
C813        C814   1.403       .  A
C813        C818   1.393       .  A
C813        H819   1.083       .  S
C814        C849   1.482   1_545  S
C814        C815   1.406       .  A
C815        C816   1.407       .  A
C815       H1652   1.083       .  S
C816        C817   1.409       .  A
C816        H821   1.083       .  S
C817        C818   1.406       .  A
C818        H822   1.083       .  S
H820       C1647   1.083       .  S
C823        C824   1.407       .  A
C823        C828   1.395       .  A
C823        H829   1.083       .  S
C824        C825   1.409       .  A
C825        C826   1.408       .  A
C825        H830   1.083       .  S
C826        C827   1.407       .  A
C826        H831   1.083       .  S
C827        C828   1.403       .  A
C828        H832   1.083       .  S
O833        C848   1.257       .  A
O833       Al841   1.883       .  S
C834        O844   1.265       .  A
C834        O835   1.268       .  A
C834       C1626   1.481       .  S
O835       Al837   1.932       .  S
O836        C838   1.255       .  A
O836       Al837   1.858       .  S
Al837       O845   1.908       .  S
Al837       O847   1.942       .  S
Al837       O846   1.784       .  S
C838        O851   1.269       .  A
C838       C1636   1.467       .  S
O839        C849   1.258       .  A
O839       Al841   1.910       .  S
O840        C853   1.264       .  A
O840       Al850   1.883       .  S
Al841       O854   1.936       .  S
Al841       O851   1.933       .  S
Al841       O846   1.776       .  S
O842        C849   1.261       .  A
O842       Al850   1.913       .  S
O843        C852   1.265       .  A
O843       Al850   1.913       .  S
O844       Al850   1.903       .  S
O845        C852   1.264       .  A
O846       Al850   1.775       .  S
O847        C848   1.265       .  A
C848       C1656   1.488       .  S
C852       C1616   1.480       .  S
C853        O854   1.271       .  A
C853       C1606   1.480       .  S
O855        C870   1.258       .  A
O855       Al863   1.884       .  S
C856        O866   1.265       .  A
C856        O857   1.268       .  A
C856       C1629   1.483       .  S
O857       Al859   1.932       .  S
O858        C860   1.256       .  A
O858       Al859   1.860       .  S
Al859       O867   1.905       .  S
Al859       O869   1.938       .  S
Al859       O868   1.784       .  S
C860        O873   1.268       .  A
C860       C1576   1.468       .  S
O861        C871   1.259       .  A
O861       Al863   1.913       .  S
O862        C875   1.264       .  A
O862       Al872   1.883       .  S
Al863       O876   1.938       .  S
Al863       O873   1.930       .  S
Al863       O868   1.775       .  S
O864        C871   1.262       .  A
O864       Al872   1.918       .  S
O865        C874   1.265       .  A
O865       Al872   1.915       .  S
O866       Al872   1.903       .  S
O867        C874   1.263       .  A
O868       Al872   1.774       .  S
O869        C870   1.264       .  A
C870       C1589   1.487       .  S
C874       C1566   1.479       .  S
C875        O876   1.270       .  A
C875       C1559   1.481       .  S
O877        C892   1.270       .  A
O877       Al885   1.935       .  S
C878        O888   1.268       .  A
C878        O879   1.265       .  A
C878       C1526   1.482       .  S
O879       Al881   1.904       .  S
O880        C882   1.261       .  A
O880       Al881   1.913       .  S
Al881       O889   1.912       .  S
Al881       O891   1.884       .  S
Al881       O890   1.774       .  S
C882        O895   1.259       .  A
O883        C893   1.268       .  A
O883       Al885   1.932       .  S
O884        C897   1.265       .  A
O884       Al894   1.940       .  S
Al885       O898   1.884       .  S
Al885       O895   1.911       .  S
Al885       O890   1.777       .  S
O886        C893   1.255       .  A
O886       Al894   1.858       .  S
O887        C896   1.264       .  A
O887       Al894   1.909       .  S
O888       Al894   1.932       .  S
O889        C896   1.265       .  A
O890       Al894   1.783       .  S
O891        C892   1.264       .  A
C892       C1506   1.479       .  S
C893       C1516   1.467       .  S
C896       C1619   1.480       .  S
C897        O898   1.257       .  A
C897       C1536   1.488       .  S
O899        C914   1.270       .  A
O899       Al907   1.937       .  S
C900        O910   1.268       .  A
C900        O901   1.266       .  A
C900       C1529   1.482       .  S
O901       Al903   1.901       .  S
O902        C904   1.262       .  A
O902       Al903   1.920       .  S
Al903       O911   1.916       .  S
Al903       O913   1.881       .  S
Al903       O912   1.774       .  S
C904        O917   1.259       .  A
O905        C915   1.268       .  A
O905       Al907   1.928       .  S
O906        C919   1.264       .  A
O906       Al916   1.937       .  S
Al907       O920   1.885       .  S
Al907       O917   1.914       .  S
Al907       O912   1.776       .  S
O908        C915   1.256       .  A
O908       Al916   1.859       .  S
O909        C918   1.263       .  A
O909       Al916   1.905       .  S
O910       Al916   1.933       .  S
O911        C918   1.265       .  A
O912       Al916   1.784       .  S
O913        C914   1.264       .  A
C914       C1466   1.479       .  S
C915       C1496   1.468       .  S
C918       C1569   1.479       .  S
C919        O920   1.258       .  A
C919       C1486   1.487       .  S
O921        C936   1.257       .  A
O921       Al929   1.882       .  S
C922        O932   1.266       .  A
C922        O923   1.268       .  A
C922       C1456   1.481       .  S
O923       Al925   1.931       .  S
O924        C926   1.256       .  A
O924       Al925   1.860       .  S
Al925       O933   1.904       .  S
Al925       O935   1.939       .  S
Al925       O934   1.783       .  S
C926        O939   1.268       .  A
C926       C1499   1.468       .  S
O927        C937   1.259       .  A
O927       Al929   1.910       .  S
O928        C941   1.264       .  A
O928       Al938   1.882       .  S
Al929       O942   1.937       .  S
Al929       O939   1.930       .  S
Al929       O934   1.775       .  S
O930        C937   1.262       .  A
O930       Al938   1.919       .  S
O931        C940   1.265       .  A
O931       Al938   1.915       .  S
O932       Al938   1.902       .  S
O933        C940   1.263       .  A
O934       Al938   1.774       .  S
O935        C936   1.264       .  A
C936       C1549   1.486       .  S
C937       C1539   1.482       .  S
C940       C1446   1.478       .  S
C941        O942   1.270       .  A
C941       C1436   1.480       .  S
O943        C958   1.258       .  A
O943       Al951   1.885       .  S
C944        O954   1.266       .  A
C944        O945   1.268       .  A
C944       C1459   1.481       .  S
O945       Al947   1.932       .  S
O946        C948   1.255       .  A
O946       Al947   1.859       .  S
Al947       O955   1.908       .  S
Al947       O957   1.946       .  S
Al947       O956   1.783       .  S
C948        O961   1.269       .  A
C948       C1519   1.467       .  S
O949        C959   1.259       .  A
O949       Al951   1.911       .  S
O950        C963   1.264       .  A
O950       Al960   1.883       .  S
Al951       O964   1.937       .  S
Al951       O961   1.932       .  S
Al951       O956   1.775       .  S
O952        C959   1.261       .  A
O952       Al960   1.916       .  S
O953        C962   1.265       .  A
O953       Al960   1.913       .  S
O954       Al960   1.904       .  S
O955        C962   1.264       .  A
O956       Al960   1.775       .  S
O957        C958   1.266       .  A
C958       C1479   1.491       .  S
C959       C1489   1.481       .  S
C962       C1426   1.480       .  S
C963        O964   1.271       .  A
C963       C1416   1.480       .  S
O965        C980   1.270       .  A
O965       Al973   1.937       .  S
C966        O976   1.268       .  A
C966        O967   1.265       .  A
C966       C1406   1.481       .  S
O967       Al969   1.900       .  S
O968        C970   1.262       .  A
O968       Al969   1.918       .  S
Al969       O977   1.915       .  S
Al969       O979   1.882       .  S
Al969       O978   1.774       .  S
C970        O983   1.259       .  A
C970       C1659   1.484       .  S
O971        C981   1.268       .  A
O971       Al973   1.930       .  S
O972        C985   1.265       .  A
O972       Al982   1.939       .  S
Al973       O986   1.881       .  S
Al973       O983   1.911       .  S
Al973       O978   1.775       .  S
O974        C981   1.255       .  A
O974       Al982   1.859       .  S
O975        C984   1.263       .  A
O975       Al982   1.905       .  S
O976       Al982   1.932       .  S
O977        C984   1.265       .  A
O978       Al982   1.783       .  S
O979        C980   1.264       .  A
C980       C1396   1.480       .  S
C981       C1579   1.468       .  S
C984       C1449   1.478       .  S
C985        O986   1.257       .  A
C985       C1649   1.486       .  S
O987       C1002   1.271       .  A
O987       Al995   1.937       .  S
C988        O998   1.268       .  A
C988        O989   1.265       .  A
C988       C1409   1.480       .  S
O989       Al991   1.903       .  S
O990        C992   1.261       .  A
O990       Al991   1.914       .  S
Al991       O999   1.914       .  S
Al991      O1001   1.883       .  S
Al991      O1000   1.775       .  S
C992       O1005   1.259       .  A
C992       C1586   1.481       .  S
O993       C1003   1.269       .  A
O993       Al995   1.934       .  S
O994       C1007   1.265       .  A
O994      Al1004   1.942       .  S
Al995      O1008   1.886       .  S
Al995      O1005   1.912       .  S
Al995      O1000   1.776       .  S
O996       C1003   1.255       .  A
O996      Al1004   1.857       .  S
O997       C1006   1.264       .  A
O997      Al1004   1.906       .  S
O998      Al1004   1.930       .  S
O999       C1006   1.265       .  A
O1000     Al1004   1.783       .  S
O1001      C1002   1.264       .  A
C1002      C1386   1.481       .  S
C1003      C1639   1.467       .  S
C1006      C1429   1.479       .  S
C1007      O1008   1.258       .  A
C1007      C1599   1.489       .  S
O1009      C1024   1.271       .  A
O1009     Al1017   1.938       .  S
C1010      O1020   1.268       .  A
C1010      O1011   1.265       .  A
C1010      C1346   1.479       .  S
O1011     Al1013   1.900       .  S
O1012      C1014   1.261       .  A
O1012     Al1013   1.915       .  S
Al1013     O1021   1.913       .  S
Al1013     O1023   1.881       .  S
Al1013     O1022   1.775       .  S
C1014      O1027   1.258       .  A
O1015      C1025   1.269       .  A
O1015     Al1017   1.933       .  S
O1016      C1029   1.264       .  A
O1016     Al1026   1.938       .  S
Al1017     O1030   1.883       .  S
Al1017     O1027   1.911       .  S
Al1017     O1022   1.775       .  S
O1018      C1025   1.256       .  A
O1018     Al1026   1.861       .  S
O1019      C1028   1.264       .  A
O1019     Al1026   1.907       .  S
O1020     Al1026   1.930       .  S
O1021      C1028   1.265       .  A
O1022     Al1026   1.784       .  S
O1023      C1024   1.264       .  A
C1024      C1609   1.480       .  S
C1025      C1359   1.470       .  S
C1028      C1336   1.479       .  S
C1029      O1030   1.257       .  A
C1029      C1376   1.487       .  S
O1031      C1046   1.270       .  A
O1031     Al1039   1.938       .  S
C1032      O1042   1.267       .  A
C1032      O1033   1.265       .  A
C1032      C1349   1.480       .  S
O1033     Al1035   1.904       .  S
O1034      C1036   1.262       .  A
O1034     Al1035   1.916       .  S
Al1035     O1043   1.917       .  S
Al1035     O1045   1.882       .  S
Al1035     O1044   1.773       .  S
C1036      O1049   1.259       .  A
O1037      C1047   1.268       .  A
O1037     Al1039   1.931       .  S
O1038      C1051   1.265       .  A
O1038     Al1048   1.939       .  S
Al1039     O1052   1.885       .  S
Al1039     O1049   1.911       .  S
Al1039     O1044   1.777       .  S
O1040      C1047   1.256       .  A
O1040     Al1048   1.864       .  S
O1041      C1050   1.264       .  A
O1041     Al1048   1.908       .  S
O1042     Al1048   1.928       .  S
O1043      C1050   1.266       .  A
O1044     Al1048   1.782       .  S
O1045      C1046   1.264       .  A
C1046      C1556   1.481       .  S
C1047      C1306   1.468       .  S
C1050      C1296   1.481       .  S
C1051      O1052   1.258       .  A
C1051      C1316   1.487       .  S
O1053      C1068   1.257       .  A
O1053     Al1061   1.881       .  S
C1054      O1064   1.266       .  A
C1054      O1055   1.268       .  A
C1054      C1266   1.480       .  S
O1055     Al1057   1.931       .  S
O1056      C1058   1.256       .  A
O1056     Al1057   1.860       .  S
Al1057     O1065   1.907       .  S
Al1057     O1067   1.938       .  S
Al1057     O1066   1.784       .  S
C1058      O1071   1.269       .  A
C1058      C1256   1.469       .  S
O1059      C1069   1.259       .  A
O1059     Al1061   1.912       .  S
O1060      C1073   1.264       .  A
O1060     Al1070   1.882       .  S
Al1061     O1074   1.937       .  S
Al1061     O1071   1.934       .  S
Al1061     O1066   1.775       .  S
O1062      C1069   1.261       .  A
O1062     Al1070   1.918       .  S
O1063      C1072   1.265       .  A
O1063     Al1070   1.915       .  S
O1064     Al1070   1.902       .  S
O1065      C1072   1.263       .  A
O1066     Al1070   1.775       .  S
O1067      C1068   1.264       .  A
C1068      C1276   1.486       .  S
C1072      C1339   1.479       .  S
C1073      O1074   1.271       .  A
C1073      C1509   1.480       .  S
O1075      C1090   1.258       .  A
O1075     Al1083   1.883       .  S
C1076      O1086   1.266       .  A
C1076      O1077   1.268       .  A
C1076      C1269   1.482       .  S
O1077     Al1079   1.931       .  S
O1078      C1080   1.256       .  A
O1078     Al1079   1.862       .  S
Al1079     O1087   1.909       .  S
Al1079     O1089   1.941       .  S
Al1079     O1088   1.783       .  S
C1080      O1093   1.268       .  A
C1080      C1246   1.467       .  S
O1081      C1091   1.259       .  A
O1081     Al1083   1.912       .  S
O1082      C1095   1.264       .  A
O1082     Al1092   1.881       .  S
Al1083     O1096   1.936       .  S
Al1083     O1093   1.928       .  S
Al1083     O1088   1.777       .  S
O1084      C1091   1.262       .  A
O1084     Al1092   1.916       .  S
O1085      C1094   1.265       .  A
O1085     Al1092   1.916       .  S
O1086     Al1092   1.904       .  S
O1087      C1094   1.264       .  A
O1088     Al1092   1.773       .  S
O1089      C1090   1.265       .  A
C1090      C1236   1.487       .  S
C1094      C1299   1.481       .  S
C1095      O1096   1.270       .  A
C1095      C1469   1.479       .  S
O1097      C1112   1.270       .  A
O1097     Al1105   1.936       .  S
C1098      O1108   1.268       .  A
C1098      O1099   1.265       .  A
C1098      C1216   1.481       .  S
O1099     Al1101   1.903       .  S
O1100      C1102   1.261       .  A
O1100     Al1101   1.914       .  S
Al1101     O1109   1.914       .  S
Al1101     O1111   1.882       .  S
Al1101     O1110   1.773       .  S
C1102      O1115   1.259       .  A
C1102      C1279   1.483       .  S
O1103      C1113   1.268       .  A
O1103     Al1105   1.930       .  S
O1104      C1117   1.265       .  A
O1104     Al1114   1.941       .  S
Al1105     O1118   1.883       .  S
Al1105     O1115   1.911       .  S
Al1105     O1110   1.776       .  S
O1106      C1113   1.256       .  A
O1106     Al1114   1.861       .  S
O1107      C1116   1.264       .  A
O1107     Al1114   1.908       .  S
O1108     Al1114   1.930       .  S
O1109      C1116   1.265       .  A
O1110     Al1114   1.783       .  S
O1111      C1112   1.264       .  A
C1112      C1439   1.480       .  S
C1113      C1249   1.467       .  S
C1116      C1206   1.480       .  S
C1117      O1118   1.258       .  A
C1117      C1289   1.487       .  S
O1119      C1134   1.271       .  A
O1119     Al1127   1.940       .  S
C1120      O1130   1.268       .  A
C1120      O1121   1.265       .  A
C1120      C1219   1.479       .  S
O1121     Al1123   1.900       .  S
O1122      C1124   1.260       .  A
O1122     Al1123   1.914       .  S
Al1123     O1131   1.912       .  S
Al1123     O1133   1.881       .  S
Al1123     O1132   1.775       .  S
C1124      O1137   1.259       .  A
C1124      C1239   1.483       .  S
O1125      C1135   1.269       .  A
O1125     Al1127   1.934       .  S
O1126      C1139   1.264       .  A
O1126     Al1136   1.936       .  S
Al1127     O1140   1.884       .  S
Al1127     O1137   1.914       .  S
Al1127     O1132   1.776       .  S
O1128      C1135   1.256       .  A
O1128     Al1136   1.860       .  S
O1129      C1138   1.263       .  A
O1129     Al1136   1.908       .  S
O1130     Al1136   1.930       .  S
O1131      C1138   1.264       .  A
O1132     Al1136   1.784       .  S
O1133      C1134   1.264       .  A
C1134      C1419   1.480       .  S
C1135      C1259   1.470       .  S
C1138      C1196   1.480       .  S
C1139      O1140   1.258       .  A
C1139      C1229   1.487       .  S
O1141      C1156   1.257       .  A
O1141     Al1149   1.881       .  S
C1142      O1152   1.265       .  A
C1142      O1143   1.268       .  A
C1142      C1186   1.480       .  S
O1143     Al1145   1.929       .  S
O1144      C1146   1.256       .  A
O1144     Al1145   1.864       .  S
Al1145     O1153   1.909       .  S
Al1145     O1155   1.941       .  S
Al1145     O1154   1.783       .  S
C1146      O1159   1.268       .  A
C1146      C1309   1.468       .  S
O1147      C1157   1.259       .  A
O1147     Al1149   1.911       .  S
O1148      C1161   1.264       .  A
O1148     Al1158   1.882       .  S
Al1149     O1162   1.936       .  S
Al1149     O1159   1.931       .  S
Al1149     O1154   1.776       .  S
O1150      C1157   1.262       .  A
O1150     Al1158   1.916       .  S
O1151      C1160   1.265       .  A
O1151     Al1158   1.914       .  S
O1152     Al1158   1.902       .  S
O1153      C1160   1.264       .  A
O1154     Al1158   1.772       .  S
O1155      C1156   1.265       .  A
C1156      C1369   1.486       .  S
C1157      C1379   1.483       .  S
C1160      C1209   1.481       .  S
C1161      O1162   1.270       .  A
C1161      C1399   1.480       .  S
O1163      C1178   1.258       .  A
O1163     Al1171   1.885       .  S
C1164      O1174   1.265       .  A
C1164      O1165   1.267       .  A
C1164      C1189   1.477       .  S
O1165     Al1167   1.927       .  S
O1166      C1168   1.256       .  A
O1166     Al1167   1.862       .  S
Al1167     O1175   1.908       .  S
Al1167     O1177   1.934       .  S
Al1167     O1176   1.785       .  S
C1168      O1181   1.269       .  A
C1168      C1356   1.470       .  S
O1169      C1179   1.259       .  A
O1169     Al1171   1.915       .  S
O1170      C1183   1.264       .  A
O1170     Al1180   1.882       .  S
Al1171     O1184   1.938       .  S
Al1171     O1181   1.932       .  S
Al1171     O1176   1.776       .  S
O1172      C1179   1.260       .  A
O1172     Al1180   1.914       .  S
O1173      C1182   1.264       .  A
O1173     Al1180   1.912       .  S
O1174     Al1180   1.900       .  S
O1175      C1182   1.263       .  A
O1176     Al1180   1.775       .  S
O1177      C1178   1.264       .  A
C1178      C1326   1.486       .  S
C1179      C1319   1.483       .  S
C1182      C1199   1.480       .  S
C1183      O1184   1.271       .  A
C1183      C1389   1.481       .  S
C1185      C1186   1.407   1_556  A
C1185      C1190   1.398       .  A
C1185      H1191   1.083       .  S
C1186      C1187   1.404       .  A
C1187      C1188   1.399   1_554  A
C1187      H1192   1.083       .  S
C1188      C1189   1.407       .  A
C1188      H1193   1.083       .  S
C1189      C1190   1.402       .  A
C1190      H1194   1.083       .  S
C1195      C1196   1.405       .  A
C1195      C1200   1.393       .  A
C1195      H1201   1.083       .  S
C1196      C1197   1.406       .  A
C1197      C1198   1.403       .  A
C1197      H1202   1.083       .  S
C1198      C1199   1.406       .  A
C1198      H1203   1.082       .  S
C1199      C1200   1.405       .  A
C1200      H1204   1.083       .  S
C1205      C1206   1.404       .  A
C1205      C1210   1.393       .  A
C1205      H1211   1.083       .  S
C1206      C1207   1.407       .  A
C1207      C1208   1.404       .  A
C1207      H1212   1.083       .  S
C1208      C1209   1.406       .  A
C1208      H1213   1.083       .  S
C1209      C1210   1.405       .  A
C1210      H1214   1.083       .  S
C1215      C1216   1.404       .  A
C1215      C1220   1.400   1_554  A
C1215      H1221   1.083       .  S
C1216      C1217   1.407   1_554  A
C1217      C1218   1.398       .  A
C1217      H1222   1.083       .  S
C1218      C1219   1.403       .  A
C1218      H1223   1.083       .  S
C1219      C1220   1.407       .  A
C1220      H1224   1.083       .  S
C1225      C1226   1.403       .  A
C1225      C1230   1.394       .  A
C1225      H1231   1.083       .  S
C1226      C1227   1.406       .  A
C1227      C1228   1.407       .  A
C1228      C1229   1.410       .  A
C1228      H1233   1.083       .  S
C1229      C1230   1.406       .  A
C1230      H1234   1.083       .  S
C1235      C1236   1.410       .  A
C1235      C1240   1.408       .  A
C1235      H1241   1.083       .  S
C1236      C1237   1.406       .  A
C1237      C1238   1.394       .  A
C1237      H1242   1.083       .  S
C1238      C1239   1.403       .  A
C1238      H1243   1.083       .  S
C1239      C1240   1.406       .  A
C1240      H1244   1.083       .  S
C1245      C1246   1.401       .  A
C1245      C1250   1.392       .  A
C1245      H1251   1.083       .  S
C1246      C1247   1.407       .  A
C1247      C1248   1.392   1_556  A
C1247      H1252   1.084   1_556  S
C1248      C1249   1.401       .  A
C1248      H1253   1.083       .  S
C1249      C1250   1.407   1_554  A
C1250      H1254   1.084       .  S
C1255      C1256   1.408   1_556  A
C1255      C1260   1.393       .  A
C1255      H1261   1.083       .  S
C1256      C1257   1.400       .  A
C1257      C1258   1.393   1_554  A
C1257      H1262   1.083       .  S
C1258      C1259   1.408       .  A
C1258      H1263   1.084   1_556  S
C1259      C1260   1.400       .  A
C1260      H1264   1.083       .  S
C1265      C1266   1.407   1_556  A
C1265      C1270   1.401       .  A
C1265      H1271   1.083       .  S
C1267      C1268   1.399   1_554  A
C1267      H1272   1.083       .  S
C1268      C1269   1.407       .  A
C1268      H1273   1.083       .  S
C1270      H1274   1.083       .  S
C1275      C1276   1.406       .  A
C1275      C1280   1.393       .  A
C1275      H1281   1.083       .  S
C1276      C1277   1.409       .  A
C1277      C1278   1.407       .  A
C1277      H1282   1.083       .  S
C1278      C1279   1.407       .  A
C1278      H1283   1.083       .  S
C1279      C1280   1.403       .  A
C1280      H1284   1.083       .  S
C1285      C1286   1.403       .  A
C1285      C1290   1.395       .  A
C1285      H1291   1.083       .  S
C1286      C1287   1.406       .  A
C1287      C1288   1.407       .  A
C1288      C1289   1.409       .  A
C1288      H1293   1.083       .  S
C1289      C1290   1.406       .  A
C1290      H1294   1.083       .  S
C1295      C1296   1.405       .  A
C1295      C1300   1.394   1_655  A
C1295      H1301   1.083       .  S
C1296      C1297   1.406       .  A
C1297      C1298   1.404   1_655  A
C1297      H1302   1.083       .  S
C1298      C1299   1.406       .  A
C1298      H1303   1.083       .  S
C1299      C1300   1.405       .  A
C1300      H1304   1.083       .  S
C1305      C1306   1.407       .  A
C1305      C1310   1.393   1_556  A
C1305      H1311   1.084   1_556  S
C1306      C1307   1.401       .  A
C1307      C1308   1.393       .  A
C1307      H1312   1.083       .  S
C1308      C1309   1.407   1_556  A
C1308      H1313   1.084       .  S
C1309      C1310   1.401       .  A
C1310      H1314   1.083       .  S
C1315      C1316   1.406       .  A
C1315      C1320   1.395       .  A
C1315      H1321   1.083       .  S
C1316      C1317   1.410       .  A
C1317      C1318   1.407       .  A
C1317      H1322   1.083       .  S
C1318      C1319   1.406       .  A
C1318      H1323   1.083       .  S
C1319      C1320   1.404       .  A
C1320      H1324   1.083       .  S
C1325      C1326   1.405       .  A
C1325      C1330   1.394       .  A
C1325      H1331   1.083       .  S
C1326      C1327   1.410       .  A
C1327      C1328   1.407       .  A
C1327      H1332   1.083       .  S
C1328      C1329   1.406       .  A
C1329      C1330   1.403       .  A
C1330      H1334   1.083       .  S
C1335      C1336   1.406       .  A
C1335      C1340   1.402   1_655  A
C1335      H1341   1.083       .  S
C1336      C1337   1.405       .  A
C1337      C1338   1.394   1_655  A
C1337      H1342   1.083       .  S
C1338      C1339   1.405       .  A
C1338      H1343   1.084       .  S
C1339      C1340   1.406       .  A
C1340      H1344   1.083       .  S
C1345      C1350   1.398   1_554  A
C1345      H1351   1.083       .  S
C1346      C1347   1.407   1_554  A
C1347      C1348   1.400       .  A
C1347      H1352   1.083       .  S
C1348      H1353   1.083       .  S
C1349      C1350   1.407       .  A
C1350      H1354   1.083       .  S
C1355      C1356   1.401       .  A
C1355      C1360   1.393       .  A
C1355      H1361   1.083       .  S
C1356      C1357   1.408       .  A
C1357      C1358   1.393   1_556  A
C1357      H1362   1.084   1_556  S
C1358      C1359   1.401       .  A
C1358      H1363   1.083       .  S
C1359      C1360   1.408   1_554  A
C1360      H1364   1.084       .  S
C1365      C1366   1.406       .  A
C1365      C1370   1.407       .  A
C1366      C1367   1.403       .  A
C1367      C1368   1.393       .  A
C1367      H1372   1.083       .  S
C1368      C1369   1.406       .  A
C1368      H1373   1.083       .  S
C1369      C1370   1.409       .  A
C1370      H1374   1.083       .  S
C1375      C1376   1.409       .  A
C1375      C1380   1.407       .  A
C1375      H1381   1.083       .  S
C1376      C1377   1.406       .  A
C1377      C1378   1.393       .  A
C1377      H1382   1.083       .  S
C1378      C1379   1.403       .  A
C1378      H1383   1.083       .  S
C1379      C1380   1.407       .  A
C1380      H1384   1.083       .  S
C1385      C1386   1.405       .  A
C1385      C1390   1.395       .  A
C1385      H1391   1.083       .  S
C1386      C1387   1.406       .  A
C1387      C1388   1.401       .  A
C1387      H1392   1.083       .  S
C1388      C1389   1.406       .  A
C1388      H1393   1.083       .  S
C1389      C1390   1.405       .  A
C1390      H1394   1.083       .  S
C1395      C1396   1.406       .  A
C1395      C1400   1.401       .  A
C1395      H1401   1.083       .  S
C1396      C1397   1.405       .  A
C1397      C1398   1.393       .  A
C1397      H1402   1.083       .  S
C1398      C1399   1.405       .  A
C1398      H1403   1.083       .  S
C1399      C1400   1.406       .  A
C1400      H1404   1.083       .  S
C1405      C1406   1.404       .  A
C1405      C1410   1.399       .  A
C1405      H1411   1.083       .  S
C1406      C1407   1.407       .  A
C1407      C1408   1.400       .  A
C1407      H1412   1.083       .  S
C1408      C1409   1.404       .  A
C1408      H1413   1.083       .  S
C1409      C1410   1.406       .  A
C1410      H1414   1.083       .  S
C1415      C1416   1.405       .  A
C1415      C1420   1.394       .  A
C1415      H1421   1.083       .  S
C1416      C1417   1.406       .  A
C1417      C1418   1.401       .  A
C1417      H1422   1.083       .  S
C1418      C1419   1.406       .  A
C1418      H1423   1.083       .  S
C1419      C1420   1.405       .  A
C1420      H1424   1.083       .  S
C1425      C1426   1.406       .  A
C1425      C1430   1.403       .  A
C1425      H1431   1.083       .  S
C1426      C1427   1.405       .  A
C1427      C1428   1.393       .  A
C1427      H1432   1.083       .  S
C1428      C1429   1.404       .  A
C1428      H1433   1.083       .  S
C1429      C1430   1.406       .  A
C1430      H1434   1.083       .  S
C1435      C1436   1.406       .  A
C1435      C1440   1.401       .  A
C1435      H1441   1.083       .  S
C1436      C1437   1.405       .  A
C1437      C1438   1.393       .  A
C1437      H1442   1.083       .  S
C1438      C1439   1.405       .  A
C1438      H1443   1.083       .  S
C1439      C1440   1.406       .  A
C1440      H1444   1.083       .  S
C1445      C1446   1.406       .  A
C1445      C1450   1.402       .  A
C1445      H1451   1.083       .  S
C1446      C1447   1.404       .  A
C1447      C1448   1.394       .  A
C1447      H1452   1.083       .  S
C1448      C1449   1.404       .  A
C1448      H1453   1.083       .  S
C1449      C1450   1.406       .  A
C1450      H1454   1.083       .  S
C1455      C1456   1.408       .  A
C1455      C1460   1.400       .  A
C1455      H1461   1.083       .  S
C1456      C1457   1.404       .  A
C1457      C1458   1.400       .  A
C1457      H1462   1.083       .  S
C1458      C1459   1.407       .  A
C1458      H1463   1.083       .  S
C1459      C1460   1.404       .  A
C1460      H1464   1.083       .  S
C1465      C1466   1.405       .  A
C1465      C1470   1.392       .  A
C1465      H1471   1.083       .  S
C1466      C1467   1.406       .  A
C1467      C1468   1.401       .  A
C1467      H1472   1.083       .  S
C1468      C1469   1.406       .  A
C1468      H1473   1.083       .  S
C1469      C1470   1.404       .  A
C1470      H1474   1.083       .  S
C1475      C1476   1.403       .  A
C1475      C1480   1.396       .  A
C1475      H1481   1.083       .  S
C1476      C1477   1.407       .  A
C1477      C1478   1.409       .  A
C1478      C1479   1.410       .  A
C1478      H1483   1.083       .  S
C1479      C1480   1.407       .  A
C1480      H1484   1.083       .  S
C1485      C1486   1.410       .  A
C1485      C1490   1.406       .  A
C1485      H1491   1.083       .  S
C1486      C1487   1.406       .  A
C1487      C1488   1.395       .  A
C1487      H1492   1.083       .  S
C1488      C1489   1.403       .  A
C1488      H1493   1.083       .  S
C1489      C1490   1.405       .  A
C1490      H1494   1.083       .  S
C1495      C1496   1.408       .  A
C1495      C1500   1.392       .  A
C1495      H1501   1.084       .  S
C1496      C1497   1.400       .  A
C1497      C1498   1.392       .  A
C1497      H1502   1.083       .  S
C1498      C1499   1.408       .  A
C1498      H1503   1.083       .  S
C1499      C1500   1.400       .  A
C1500      H1504   1.083       .  S
C1505      C1506   1.405       .  A
C1505      C1510   1.394       .  A
C1505      H1511   1.083       .  S
C1506      C1507   1.406       .  A
C1507      C1508   1.400       .  A
C1507      H1512   1.083       .  S
C1508      C1509   1.406       .  A
C1508      H1513   1.083       .  S
C1509      C1510   1.405       .  A
C1510      H1514   1.083       .  S
C1515      C1516   1.400       .  A
C1515      C1520   1.393       .  A
C1515      H1521   1.083       .  S
C1516      C1517   1.407       .  A
C1517      C1518   1.391       .  A
C1517      H1522   1.084       .  S
C1518      C1519   1.400       .  A
C1518      H1523   1.083       .  S
C1519      C1520   1.408       .  A
C1520      H1524   1.084       .  S
C1525      C1526   1.404   1_545  A
C1525      H1531   1.083       .  S
C1526      C1527   1.407       .  A
C1527      H1532   1.083       .  S
C1528      C1529   1.404       .  A
C1528      H1533   1.083       .  S
C1529      C1530   1.408       .  A
C1530      H1534   1.083       .  S
C1535      C1536   1.406       .  A
C1535      C1540   1.395       .  A
C1535      H1541   1.083       .  S
C1536      C1537   1.409       .  A
C1537      C1538   1.407       .  A
C1537      H1542   1.083       .  S
C1538      C1539   1.406       .  A
C1538      H1543   1.083       .  S
C1539      C1540   1.403       .  A
C1540      H1544   1.083       .  S
C1545      C1546   1.406       .  A
C1545      C1550   1.407       .  A
C1546      C1547   1.403       .  A
C1547      C1548   1.393       .  A
C1547      H1552   1.083       .  S
C1548      C1549   1.406       .  A
C1548      H1553   1.083       .  S
C1549      C1550   1.409       .  A
C1550      H1554   1.083       .  S
C1555      C1556   1.406       .  A
C1555      C1560   1.402       .  A
C1555      H1561   1.083       .  S
C1556      C1557   1.405       .  A
C1557      C1558   1.393       .  A
C1557      H1562   1.083       .  S
C1558      C1559   1.405       .  A
C1558      H1563   1.083       .  S
C1559      C1560   1.407       .  A
C1560      H1564   1.083       .  S
C1565      C1566   1.406       .  A
C1565      C1570   1.402   1_655  A
C1565      H1571   1.083       .  S
C1566      C1567   1.404       .  A
C1567      C1568   1.394   1_655  A
C1567      H1572   1.083       .  S
C1568      C1569   1.404       .  A
C1568      H1573   1.083       .  S
C1569      C1570   1.406       .  A
C1570      H1574   1.082       .  S
C1575      C1576   1.400       .  A
C1575      C1580   1.392       .  A
C1575      H1581   1.083       .  S
C1576      C1577   1.408       .  A
C1577      C1578   1.392       .  A
C1577      H1582   1.084       .  S
C1578      C1579   1.400       .  A
C1578      H1583   1.083       .  S
C1579      C1580   1.408       .  A
C1580      H1584   1.083       .  S
C1585      C1586   1.406       .  A
C1585      C1590   1.407       .  A
C1585      H1591   1.083       .  S
C1586      C1587   1.403       .  A
C1587      C1588   1.394       .  A
C1587      H1592   1.083       .  S
C1588      C1589   1.406       .  A
C1588      H1593   1.083       .  S
C1589      C1590   1.410       .  A
C1590      H1594   1.083       .  S
C1595      C1596   1.403       .  A
C1595      C1600   1.395       .  A
C1595      H1601   1.083       .  S
C1596      C1597   1.407       .  A
C1597      C1598   1.408       .  A
C1598      C1599   1.410       .  A
C1598      H1603   1.083       .  S
C1599      C1600   1.406       .  A
C1600      H1604   1.083       .  S
C1605      C1606   1.406       .  A
C1605      C1610   1.400       .  A
C1605      H1611   1.083       .  S
C1606      C1607   1.405       .  A
C1607      C1608   1.395       .  A
C1607      H1612   1.083       .  S
C1608      C1609   1.405       .  A
C1608      H1613   1.083       .  S
C1609      C1610   1.406       .  A
C1610      H1614   1.083       .  S
C1615      C1616   1.406       .  A
C1615      C1620   1.404   1_655  A
C1615      H1621   1.083       .  S
C1616      C1617   1.404       .  A
C1617      C1618   1.392   1_655  A
C1617      H1622   1.083       .  S
C1618      C1619   1.405       .  A
C1618      H1623   1.083       .  S
C1619      C1620   1.406       .  A
C1620      H1624   1.082       .  S
C1625      C1630   1.401       .  A
C1625      H1631   1.083       .  S
C1626      C1627   1.407       .  A
C1627      C1628   1.400       .  A
C1627      H1632   1.083       .  S
C1628      H1633   1.083       .  S
C1629      C1630   1.408       .  A
C1630      H1634   1.083       .  S
C1635      C1636   1.400       .  A
C1635      C1640   1.392       .  A
C1635      H1641   1.083       .  S
C1636      C1637   1.408       .  A
C1637      C1638   1.393       .  A
C1637      H1642   1.084       .  S
C1638      C1639   1.400       .  A
C1638      H1643   1.083       .  S
C1639      C1640   1.408       .  A
C1640      H1644   1.083       .  S
C1645      C1646   1.403       .  A
C1645      C1650   1.393       .  A
C1645      H1651   1.083       .  S
C1646      C1647   1.406       .  A
C1647      C1648   1.407       .  A
C1648      C1649   1.409       .  A
C1648      H1653   1.083       .  S
C1649      C1650   1.406       .  A
C1650      H1654   1.083       .  S
C1655      C1656   1.407       .  A
C1655      C1660   1.395       .  A
C1655      H1661   1.083       .  S
C1656      C1657   1.409       .  A
C1657      C1658   1.408       .  A
C1657      H1662   1.083       .  S
C1658      C1659   1.407       .  A
C1658      H1663   1.083       .  S
C1659      C1660   1.403       .  A
C1660      H1664   1.083       .  S
