geometry optimzed in LAMMPS
_audit_creation_date              2020-12-01 
_audit_creation_method            'lammps2cif' 
_symmetry_space_group_name_H-M    'P1' 
_symmetry_Int_Tables_number       1 
_symmetry_cell_setting            triclinic 
loop_ 
_symmetry_equiv_pos_as_xyz 
  x,y,z 
_cell_length_a                    27.44065298 
_cell_length_b                    45.616171661093 
_cell_length_c                    29.877604527603495 
_cell_angle_alpha                 90.35980612886453 
_cell_angle_beta                  108.5328724159291 
_cell_angle_gamma                 89.4703715374988 
loop_ 
_atom_site_label 
_atom_site_type_symbol 
_atom_site_fract_x 
_atom_site_fract_y 
_atom_site_fract_z 
_atom_site_charge 
Fe1        Fe  0.76065697  0.59041993  0.75058163     1.65800
Fe2        Fe  0.63562818  0.60209267  0.68958703     1.73200
Fe3        Fe  0.67644121  0.53668180  0.74506356     1.54400
O4          O  0.73675655  0.51728530  0.72798825    -0.81400
O5          O  0.58462393  0.59277713  0.72625755    -0.79700
O6          O  0.79634998  0.54991923  0.76009772    -0.83900
O7          O  0.75783910  0.58852526  0.81849396    -0.78800
O8          O  0.63015481  0.52614950  0.67733641    -0.80600
O9          O  0.65910957  0.63954364  0.73053857    -0.83300
C10         C  0.74399182  0.56673489  0.83798311     0.97500
C11         C  0.78333421  0.52423303  0.74572458     1.04900
O12         O  0.69012876  0.57639573  0.72834371    -1.12300
O13         O  0.68106335  0.61175786  0.64798301    -0.74700
O14         O  0.76021223  0.59235965  0.68114341    -0.78200
O15         O  0.72143453  0.54419704  0.81520433    -0.78900
C16         C  0.72470525  0.60305901  0.64596995     0.96400
O17         O  0.74300959  0.63401037  0.74785036    -0.76900
O18         O  0.60505952  0.56928456  0.64249709    -0.82000
C19         C  0.58097746  0.57119894  0.75180109     0.99000
C20         C  0.60567342  0.54155776  0.64192334     1.04900
O21         O  0.61364111  0.55042526  0.76284722    -0.77700
C22         C  0.70410185  0.64992169  0.74352518     1.03200
Fe23       Fe  0.74195639  0.58987261  0.24326696     1.65800
Fe24       Fe  0.82986678  0.53565569  0.25502884     1.73200
Fe25       Fe  0.86564703  0.60213265  0.30943139     1.54400
O26         O  0.84303048  0.63912470  0.26751285    -0.81400
O27         O  0.87042708  0.52605749  0.32478953    -0.79700
O28         O  0.75875576  0.63343470  0.24180388    -0.83900
O29         O  0.73869538  0.59479143  0.31168590    -0.78800
O30         O  0.92027356  0.59256075  0.27655727    -0.80600
O31         O  0.76656601  0.51578665  0.26581931    -0.83300
C32         C  0.77263603  0.60574991  0.34766969     0.97500
C33         C  0.79793917  0.64930790  0.24959127     1.04900
O34         O  0.81299489  0.57586504  0.26920457    -1.12300
O35         O  0.79123635  0.54237470  0.18354696    -0.74700
O36         O  0.74691370  0.58484497  0.17594413    -0.78200
O37         O  0.81734527  0.61309147  0.34770503    -0.78900
C38         C  0.76597045  0.56358555  0.15878303     0.96400
O39         O  0.70719036  0.54970159  0.23746106    -0.76900
O40         O  0.89608517  0.54893539  0.24291558    -0.82000
C41         C  0.89415859  0.54200608  0.35984086     0.99000
C42         C  0.92721539  0.57021325  0.25363188     1.04900
O43         O  0.89521569  0.56970966  0.35793122    -0.77700
C44         C  0.71998298  0.52367199  0.25010228     1.03200
Fe45       Fe  0.24358183  0.40775811  0.24659159     1.65800
Fe46       Fe  0.33081940  0.46058709  0.25779770     1.73200
Fe47       Fe  0.36748320  0.39376528  0.30998118     1.54400
O48         O  0.31970650  0.38347565  0.34910132    -0.81400
O49         O  0.39400903  0.44665995  0.24054209    -0.79700
O50         O  0.24168253  0.40398821  0.31514659    -0.83900
O51         O  0.25911962  0.36404685  0.24627987    -0.78800
O52         O  0.39870263  0.42525235  0.35954578    -0.80600
O53         O  0.28680109  0.45531298  0.18689206    -0.83300
C54         C  0.29758842  0.34761469  0.25157497     0.97500
C55         C  0.27582501  0.39228395  0.35029076     1.04900
O56         O  0.31477562  0.42065829  0.27154415    -1.12300
O57         O  0.27047705  0.48023526  0.27504989    -0.74700
O58         O  0.21000451  0.44865329  0.24010718    -0.78200
O59         O  0.34311490  0.35727504  0.26663625    -0.78900
C60         C  0.22365739  0.47384623  0.25664943     0.96400
O61         O  0.24822738  0.41144818  0.17927561    -0.76900
O62         O  0.37695458  0.46911048  0.32620413    -0.82000
C63         C  0.42666639  0.42589788  0.25235027     0.99000
C64         C  0.40041678  0.45295392  0.36097589     1.04900
O65         O  0.42129709  0.40377209  0.27623146    -0.77700
C66         C  0.26385505  0.43359702  0.16196904     1.03200
Fe67       Fe  0.26505439  0.41101406  0.75468286     1.65800
Fe68       Fe  0.17796732  0.46506022  0.74754991     1.73200
Fe69       Fe  0.14069902  0.39943987  0.69073626     1.54400
O70         O  0.18751267  0.38907465  0.65071701    -0.81400
O71         O  0.11363978  0.45126529  0.76254628    -0.79700
O72         O  0.26647390  0.40724680  0.68580108    -0.83900
O73         O  0.24809477  0.36748067  0.75423272    -0.78800
O74         O  0.11024687  0.43229790  0.64366972    -0.80600
O75         O  0.22051536  0.45775598  0.81842677    -0.83300
C76         C  0.20905778  0.35162358  0.74733145     0.97500
C77         C  0.23194187  0.39649764  0.65011397     1.04900
O78         O  0.19399054  0.42520659  0.73100057    -1.12300
O79         O  0.23940499  0.48499579  0.73384216    -0.74700
O80         O  0.29934936  0.45125905  0.76154513    -0.78200
O81         O  0.16385390  0.36199347  0.73150440    -0.78900
C82         C  0.28606270  0.47726203  0.74926588     0.96400
O83         O  0.26250607  0.41471952  0.82279826    -0.76900
O84         O  0.13351705  0.47555456  0.67886821    -0.82000
C85         C  0.08174706  0.43042191  0.75009298     0.99000
C86         C  0.10950085  0.46003127  0.64330118     1.04900
O87         O  0.08754983  0.40882760  0.72511464    -0.77700
C88         C  0.24595408  0.43609583  0.84181547     1.03200
Fe89       Fe  0.76156502  0.90621089  0.25715000     1.65800
Fe90       Fe  0.67682680  0.96158013  0.24803940     1.73200
Fe91       Fe  0.63663414  0.89592503  0.19265403     1.54400
O92         O  0.68321302  0.88551536  0.15206911    -0.81400
O93         O  0.61197695  0.94912246  0.26318905    -0.79700
O94         O  0.76341813  0.90177233  0.18854418    -0.83900
O95         O  0.74331651  0.86289311  0.25697713    -0.78800
O96         O  0.60616074  0.92887899  0.14596179    -0.80600
O97         O  0.71906503  0.95466006  0.31895225    -0.83300
C98         C  0.70387767  0.84720106  0.24848237     0.97500
C99         C  0.72852004  0.89185613  0.15230997     1.04900
O100        O  0.69103600  0.92118113  0.23265132    -1.12300
O101        O  0.73887880  0.97998886  0.23341442    -0.74700
O102        O  0.79753655  0.94603593  0.26373492    -0.78200
O103        O  0.65895370  0.85785642  0.23203734    -0.78900
C104        C  0.78523880  0.97188309  0.24965618     0.96400
O105        O  0.75828438  0.91066501  0.32492506    -0.76900
O106        O  0.63291304  0.97208272  0.17948629    -0.82000
C107        C  0.57937574  0.92856274  0.25218593     0.99000
C108        C  0.60719543  0.95655742  0.14473190     1.04900
O109        O  0.58434969  0.90608485  0.22834401    -0.77700
C110        C  0.74292482  0.93284800  0.34311589     1.03200
Fe111      Fe  0.74439940  0.90710061  0.74979524     1.65800
Fe112      Fe  0.83146015  0.96056324  0.76049740     1.73200
Fe113      Fe  0.86887250  0.89396733  0.81362503     1.54400
O114        O  0.82207164  0.88485639  0.85401083    -0.81400
O115        O  0.89766019  0.94691243  0.74783219    -0.79700
O116        O  0.74236958  0.90279715  0.81837393    -0.83900
O117        O  0.76028584  0.86364748  0.74860706    -0.78800
O118        O  0.90151853  0.92626276  0.86155389    -0.80600
O119        O  0.79160661  0.95371702  0.68903951    -0.83300
C120        C  0.79886307  0.84724869  0.75506365     0.97500
C121        C  0.77720875  0.89228821  0.85425335     1.04900
O122        O  0.81548410  0.92058887  0.77477382    -1.12300
O123        O  0.76807824  0.98091347  0.77223218    -0.74700
O124        O  0.70920051  0.94729325  0.74348488    -0.78200
O125        O  0.84428846  0.85678865  0.77197535    -0.78900
C126        C  0.72152730  0.97326244  0.75619771     0.96400
O127        O  0.74884116  0.91115799  0.68244105    -0.76900
O128        O  0.87375607  0.96997840  0.82994719    -0.82000
C129        C  0.92881137  0.92535138  0.75731700     0.99000
C130        C  0.90042950  0.95398695  0.86376427     1.04900
O131        O  0.92170735  0.90248753  0.77857993    -0.77700
C132        C  0.76683414  0.93225450  0.66477125     1.03200
Fe133      Fe  0.25743246  0.09379889  0.25793371     1.65800
Fe134      Fe  0.13284793  0.10490215  0.19203537     1.73200
Fe135      Fe  0.17319151  0.03891718  0.24688841     1.54400
O136        O  0.23770236  0.01957746  0.23635935    -0.81400
O137        O  0.07935734  0.09507083  0.22554883    -0.79700
O138        O  0.29493381  0.05416651  0.26431897    -0.83900
O139        O  0.25315170  0.08902178  0.32566033    -0.78800
O140        O  0.13340636  0.02881223  0.17725701    -0.80600
O141        O  0.15341913  0.14242939  0.23339706    -0.83300
C142        C  0.23550522  0.06762151  0.34314092     0.97500
C143        C  0.28379292  0.02795353  0.25210912     1.04900
O144        O  0.18728741  0.07920634  0.23234210    -1.12300
O145        O  0.18006212  0.11599394  0.15326548    -0.74700
O146        O  0.25983687  0.09849858  0.18919972    -0.78200
O147        O  0.21124052  0.04619000  0.31845168    -0.78900
C148        C  0.22508283  0.10897327  0.15317999     0.96400
O149        O  0.23780198  0.13684998  0.25869452    -0.76900
O150        O  0.10501623  0.07196977  0.14378091    -0.82000
C151        C  0.07406306  0.07256904  0.24837588     0.99000
C152        C  0.10846185  0.04428825  0.14209801     1.04900
O153        O  0.10637657  0.05162823  0.25867305    -0.77700
C154        C  0.19822194  0.15267341  0.25106187     1.03200
Fe155      Fe  0.24247399  0.09297015  0.75201007     1.65800
Fe156      Fe  0.36817685  0.10392483  0.81311380     1.73200
Fe157      Fe  0.32670220  0.03756286  0.76091713     1.54400
O158        O  0.26512237  0.01947627  0.77691303    -0.81400
O159        O  0.41839836  0.09338989  0.77548329    -0.79700
O160        O  0.20615704  0.05309435  0.74604680    -0.83900
O161        O  0.24475690  0.08802702  0.68398867    -0.78800
O162        O  0.37136281  0.02818340  0.82985698    -0.80600
O163        O  0.34428639  0.14145554  0.77255914    -0.83300
C164        C  0.25966406  0.06573206  0.66564093     0.97500
C165        C  0.21864114  0.02727833  0.76025703     1.04900
O166        O  0.31309388  0.07818799  0.77533156    -1.12300
O167        O  0.32342716  0.11449978  0.85546778    -0.74700
O168        O  0.24285190  0.09786424  0.82131577    -0.78200
O169        O  0.28342185  0.04380930  0.68970506    -0.78900
C170        C  0.27874946  0.10784964  0.85680581     0.96400
O171        O  0.26012021  0.13632154  0.75104768    -0.76900
O172        O  0.40073222  0.07168285  0.86057794    -0.82000
C173        C  0.42305643  0.07028612  0.75288406     0.99000
C174        C  0.39864568  0.04411801  0.86338051     1.04900
O175        O  0.39104939  0.04941584  0.74444057    -0.77700
C176        C  0.29920604  0.15201395  0.75726039     1.03200
C177        C  0.23814660  0.05286725  0.46138748     0.20600
C178        C  0.23287443  0.03601827  0.49877457    -0.39300
C179        C  0.24023130  0.05105170  0.54153318     0.19600
C180        C  0.25083561  0.08073537  0.54624711     0.22200
C181        C  0.25673326  0.09747723  0.50903717    -0.39800
C182        C  0.25034897  0.08233106  0.46655907     0.21000
N183        N  0.23256630  0.04382520  0.41716557    -0.33100
C184        C  0.24184414  0.06757944  0.39405781    -0.10600
C185        C  0.25329864  0.09202310  0.42380851    -0.29400
N186        N  0.25654739  0.08983815  0.59045875    -0.46000
C187        C  0.25070693  0.06570465  0.61442072    -0.05300
C188        C  0.24054020  0.04102639  0.58514734    -0.22700
H189        H  0.22418312  0.01286124  0.49496574     0.19100
H190        H  0.26598851  0.12055987  0.51299354     0.17900
H191        H  0.26103813  0.11408506  0.41492471     0.14200
H192        H  0.23517173  0.01873049  0.59474087     0.14100
H193        H  0.22243984  0.02283184  0.40337125     0.32200
H194        H  0.26619032  0.11090588  0.60411943     0.35000
C195        C  0.23394963  0.11364762  0.95670105     0.20600
C196        C  0.19837533  0.11575683  0.98145060    -0.39300
C197        C  0.21927328  0.11489486  0.03084124     0.19600
C198        C  0.27144949  0.11165954  0.05401943     0.22200
C199        C  0.30705416  0.10985487  0.02926796    -0.39800
C200        C  0.28625882  0.11123800  0.97990138     0.21000
N201        N  0.22394025  0.11307952  0.90954397    -0.33100
C202        C  0.27043572  0.11077888  0.90289677    -0.10600
C203        C  0.31007616  0.10964741  0.94589398    -0.29400
N204        N  0.28110940  0.10978934  0.10105017    -0.46000
C205        C  0.23464391  0.11219211  0.10769766    -0.05300
C206        C  0.19534662  0.11554473  0.06476191    -0.22700
H207        H  0.15742606  0.11758689  0.96361356     0.19100
H208        H  0.34787888  0.10724741  0.04706484     0.17900
H209        H  0.35082979  0.10703253  0.95144877     0.14200
H210        H  0.15440638  0.11703329  0.05902432     0.14100
H211        H  0.18798931  0.11402159  0.88367985     0.32200
H212        H  0.31672129  0.10653981  0.12675589     0.35000
C213        C  0.04330205  0.99693596  0.04678558     0.20600
C214        C  0.02194867  0.97066395  0.02493221    -0.39300
C215        C  0.98842423  0.97333162  0.97861047     0.19600
C216        C  0.97721533  0.00005134  0.95570409     0.22200
C217        C  0.99894143  0.02624745  0.97737357    -0.39800
C218        C  0.03212336  0.02361879  0.02375430     0.21000
N219        N  0.07368341  0.00063111  0.09160663    -0.33100
C220        C  0.08134612  0.02991129  0.09709802    -0.10600
C221        C  0.05643017  0.04490503  0.05545256    -0.29400
N222        N  0.94342864  0.99678811  0.91221406    -0.46000
C223        C  0.93312934  0.96775916  0.90739768    -0.05300
C224        C  0.96058975  0.95241049  0.94800818    -0.22700
H225        H  0.02996539  0.94980141  0.04296830     0.19100
H226        H  0.98975660  0.04721936  0.95981886     0.17900
H227        H  0.05469074  0.06835656  0.04972517     0.14200
H228        H  0.96040495  0.92905430  0.95415679     0.14100
H229        H  0.08663328  0.98442021  0.11732630     0.32200
H230        H  0.92882388  0.01321171  0.88718108     0.35000
C231        C  0.60122370  0.01143403  0.72408522     0.20600
C232        C  0.54822654  0.01430479  0.70147208    -0.39300
C233        C  0.52402347  0.03772062  0.71660314     0.19600
C234        C  0.55042582  0.05686713  0.75191041     0.22200
C235        C  0.60390201  0.05406720  0.77439771    -0.39800
C236        C  0.62839605  0.03062920  0.75893068     0.21000
N237        N  0.63155160  0.98944137  0.71864252    -0.33100
C238        C  0.67881019  0.99443706  0.74988195    -0.10600
C239        C  0.67866971  0.02018317  0.77552501    -0.29400
N240        N  0.51715050  0.07414026  0.76508411    -0.46000
C241        C  0.46936596  0.06545453  0.73866079    -0.05300
C242        C  0.47245057  0.04326079  0.70727430    -0.22700
H243        H  0.52685518  0.99842537  0.67578919     0.19100
H244        H  0.62440486  0.06814246  0.80344045     0.17900
H245        H  0.71013508  0.02912155  0.80399999     0.14200
H246        H  0.44115468  0.03019889  0.68516928     0.14100
H247        H  0.62035890  0.97158910  0.69578330     0.32200
H248        H  0.52624416  0.08828369  0.79416135     0.35000
C249        C  0.02966846  0.95548276  0.72348447     0.20600
C250        C  0.04941384  0.97861384  0.70412888    -0.39300
C251        C  0.10095521  0.98543973  0.72690407     0.19600
C252        C  0.13137245  0.97017167  0.76579004     0.22200
C253        C  0.11147140  0.94693524  0.78545490    -0.39800
C254        C  0.05927424  0.94023111  0.76280274     0.21000
N255        N  0.97992784  0.94847546  0.71281662    -0.33100
C256        C  0.97684819  0.92906303  0.74590065    -0.10600
C257        C  0.02589793  0.92278478  0.77715631    -0.29400
N258        N  0.17832459  0.98247148  0.78252771    -0.46000
C259        C  0.17690467  0.00598445  0.75444665    -0.05300
C260        C  0.12937948  0.00838231  0.71941679    -0.22700
H261        H  0.02541848  0.99155966  0.67506782     0.19100
H262        H  0.13406274  0.93601316  0.81748080     0.17900
H263        H  0.03493897  0.91064602  0.80983488     0.14200
H264        H  0.11688926  0.02517638  0.69265670     0.14100
H265        H  0.94921031  0.95898438  0.68794931     0.32200
H266        H  0.20857382  0.97606699  0.81225325     0.35000
C267        C  0.53898284  0.00279575  0.04872146     0.20600
C268        C  0.52267693  0.02891175  0.02374941    -0.39300
C269        C  0.48605313  0.02574532  0.97891535     0.19600
C270        C  0.46707714  0.99872168  0.96029957     0.22200
C271        C  0.48337219  0.97266670  0.98523638    -0.39800
C272        C  0.51996814  0.97582021  0.02993984     0.21000
N273        N  0.57320859  0.99970189  0.09216555    -0.33100
C274        C  0.57584212  0.97049618  0.10073526    -0.10600
C275        C  0.54324704  0.95499109  0.06276484    -0.29400
N276        N  0.43294945  0.00160384  0.91684618    -0.46000
C277        C  0.43025340  0.03071210  0.90779739    -0.05300
C278        C  0.46273932  0.04644409  0.94567722    -0.22700
H279        H  0.53739037  0.05008842  0.03808206     0.19100
H280        H  0.46871699  0.95148365  0.97088539     0.17900
H281        H  0.53698239  0.93156197  0.05982686     0.14200
H282        H  0.46886067  0.06988928  0.94829055     0.14100
H283        H  0.59317341  0.01632973  0.11456552     0.32200
H284        H  0.41313439  0.98484836  0.89465843     0.35000
C285        C  0.72316452  0.88565976  0.03195437     0.20600
C286        C  0.69874031  0.88487729  0.98294771    -0.39300
C287        C  0.73126772  0.88656120  0.95522832     0.19600
C288        C  0.78409679  0.88845004  0.97509205     0.22200
C289        C  0.80848149  0.88965629  0.02409649    -0.39800
C290        C  0.77587677  0.88832904  0.05180587     0.21000
N291        N  0.70053183  0.88547338  0.06558501    -0.33100
C292        C  0.73882480  0.88845792  0.10720466    -0.10600
C293        C  0.78657420  0.89031824  0.10014867    -0.29400
N294        N  0.80645847  0.88999643  0.94135989    -0.46000
C295        C  0.76772401  0.88952440  0.89968540    -0.05300
C296        C  0.72005532  0.88749419  0.90676583    -0.22700
H297        H  0.65739386  0.88353552  0.96758437     0.19100
H298        H  0.84969494  0.89191670  0.03942963     0.17900
H299        H  0.82371377  0.89343835  0.12655280     0.14200
H300        H  0.68251314  0.88698250  0.88023554     0.14100
H301        H  0.66109766  0.88450104  0.06035920     0.32200
H302        H  0.84571665  0.89211809  0.94641258     0.35000
C303        C  0.75642356  0.94665269  0.54496543     0.20600
C304        C  0.75335130  0.96386595  0.50545187    -0.39300
C305        C  0.75410949  0.94843443  0.46498451     0.19600
C306        C  0.75842242  0.91818620  0.46409998     0.22200
C307        C  0.76077534  0.90091321  0.50348580    -0.39800
C308        C  0.75916632  0.91634070  0.54379418     0.21000
N309        N  0.75756014  0.95612929  0.58790810    -0.33100
C310        C  0.76016433  0.93168197  0.61407069    -0.10600
C311        C  0.76100656  0.90640009  0.58779335    -0.29400
N312        N  0.75760451  0.90884520  0.42110432    -0.46000
C313        C  0.75176382  0.93330185  0.39428534    -0.05300
C314        C  0.74951742  0.95840649  0.42045276    -0.22700
H315        H  0.75030043  0.98752899  0.50609513     0.19100
H316        H  0.76336196  0.87723464  0.50271524     0.17900
H317        H  0.76464259  0.88391580  0.59985768     0.14200
H318        H  0.74382878  0.98083925  0.40816036     0.14100
H319        H  0.75713865  0.97787802  0.59892519     0.32200
H320        H  0.75862027  0.88712641  0.41011709     0.35000
C321        C  0.87280410  0.02871032  0.24449612     0.20600
C322        C  0.89208884  0.05274403  0.22610913    -0.39300
C323        C  0.94492064  0.05840776  0.24715398     0.19600
C324        C  0.97556151  0.04152045  0.28392345     0.22200
C325        C  0.95648945  0.01755716  0.30181921    -0.39800
C326        C  0.90438888  0.01175753  0.28056468     0.21000
N327        N  0.82512175  0.01728954  0.22891719    -0.33100
C328        C  0.82733139  0.99271735  0.25495009    -0.10600
C329        C  0.87606607  0.98867899  0.28736976    -0.29400
N330        N  0.02521847  0.04803174  0.29316769    -0.46000
C331        C  0.02717713  0.06855280  0.26129919    -0.05300
C332        C  0.97762002  0.07629504  0.23273142    -0.22700
H333        H  0.86846472  0.06506200  0.19606880     0.19100
H334        H  0.98121044  0.00337185  0.32859399     0.17900
H335        H  0.88928809  0.97081799  0.31208239     0.14200
H336        H  0.96745757  0.08977130  0.20137045     0.14100
H337        H  0.79373851  0.02504710  0.20128873     0.32200
H338        H  0.05627538  0.03651534  0.31589451     0.35000
C339        C  0.37505152  0.97159016  0.24867513     0.20600
C340        C  0.39590673  0.94779883  0.23025772    -0.39300
C341        C  0.44920715  0.94288869  0.25089047     0.19600
C342        C  0.47903072  0.96033831  0.28718319     0.22200
C343        C  0.45836629  0.98405557  0.30527517    -0.39800
C344        C  0.40561750  0.98903199  0.28453435     0.21000
N345        N  0.32659358  0.98241326  0.23302902    -0.33100
C346        C  0.32705260  0.00714326  0.25871128    -0.10600
C347        C  0.37559840  0.01179329  0.29119126    -0.29400
N348        N  0.52912483  0.95425461  0.29618311    -0.46000
C349        C  0.53208730  0.93320194  0.26490920    -0.05300
C350        C  0.48277989  0.92501494  0.23668346    -0.22700
H351        H  0.37292596  0.93505024  0.20047804     0.19100
H352        H  0.48225092  0.99862904  0.33183828     0.17900
H353        H  0.38771212  0.03001244  0.31549023     0.14200
H354        H  0.47311740  0.91097087  0.20581851     0.14100
H355        H  0.29582815  0.97428713  0.20521316     0.32200
H356        H  0.55964446  0.96609237  0.31868823     0.35000
C357        C  0.26421329  0.28015407  0.76822312     0.20600
C358        C  0.30530293  0.25994630  0.78057592    -0.39300
C359        C  0.29349968  0.23131978  0.76331906     0.19600
C360        C  0.24440107  0.22359449  0.73594888     0.22200
C361        C  0.20332850  0.24380676  0.72357965    -0.39800
C362        C  0.21512881  0.27242109  0.74082898     0.21000
N363        N  0.26640011  0.30898758  0.77753547    -0.33100
C364        C  0.21864883  0.31995687  0.75557320    -0.10600
C365        C  0.18524900  0.29765853  0.73279714    -0.29400
N366        N  0.24213148  0.19474286  0.72677073    -0.46000
C367        C  0.28983541  0.18371795  0.74876076    -0.05300
C368        C  0.32330886  0.20603545  0.77143431    -0.22700
H369        H  0.34363708  0.26609002  0.80208412     0.19100
H370        H  0.16497698  0.23766143  0.70211891     0.17900
H371        H  0.14592187  0.29998592  0.70999034     0.14200
H372        H  0.36260845  0.20369400  0.79429637     0.14100
H373        H  0.29946377  0.32086028  0.79513495     0.32200
H374        H  0.20900860  0.18288889  0.70927791     0.35000
C375        C  0.28504876  0.27094356  0.26247048     0.20600
C376        C  0.29556108  0.24408437  0.28628738    -0.39300
C377        C  0.25527220  0.22380697  0.27439588     0.19600
C378        C  0.20800978  0.22960392  0.24120517     0.22200
C379        C  0.19739573  0.25654413  0.21747631    -0.39800
C380        C  0.23769594  0.27689368  0.22951529     0.21000
N381        N  0.31546122  0.29468869  0.27022974    -0.33100
C382        C  0.28687481  0.31616646  0.24273111    -0.10600
C383        C  0.23847107  0.30564971  0.21632578    -0.29400
N384        N  0.17816217  0.20558139  0.23294368    -0.46000
C385        C  0.20713544  0.18420726  0.26049121    -0.05300
C386        C  0.25495505  0.19506921  0.28751283    -0.22700
H387        H  0.33252158  0.23924415  0.31205062     0.19100
H388        H  0.16052563  0.26132080  0.19152746     0.17900
H389        H  0.20629673  0.31822450  0.19409996     0.14200
H390        H  0.28738631  0.18266791  0.30972636     0.14100
H391        H  0.35124670  0.29696642  0.29611425     0.32200
H392        H  0.14273637  0.20307100  0.20661085     0.35000
C393        C  0.25522972  0.44963778  0.96202890     0.20600
C394        C  0.25223205  0.46623861  0.00074871    -0.39300
C395        C  0.25399680  0.45021538  0.04111198     0.19600
C396        C  0.25777589  0.41992801  0.04266281     0.22200
C397        C  0.26171756  0.40334153  0.00418009    -0.39800
C398        C  0.26055558  0.41941543  0.96392275     0.21000
N399        N  0.25154326  0.45954671  0.91882797    -0.33100
C400        C  0.25491692  0.43550780  0.89304725    -0.10600
C401        C  0.26118775  0.41008100  0.92011362    -0.29400
N402        N  0.25876151  0.40998885  0.08522132    -0.46000
C403        C  0.25659833  0.43418978  0.11112374    -0.05300
C404        C  0.25361589  0.45966643  0.08483374    -0.22700
H405        H  0.24849373  0.48988618  0.99945054     0.19100
H406        H  0.26506668  0.37967744  0.00537164     0.17900
H407        H  0.26283577  0.38768241  0.90847371     0.14200
H408        H  0.25270879  0.48209960  0.09658676     0.14100
H409        H  0.24549279  0.48122236  0.90717510     0.32200
H410        H  0.26312181  0.38823959  0.09666433     0.35000
C411        C  0.28414332  0.38963829  0.47143725     0.20600
C412        C  0.30922286  0.39126505  0.52027759    -0.39300
C413        C  0.27712505  0.39151320  0.54851053     0.19600
C414        C  0.22419896  0.38986656  0.52930234     0.22200
C415        C  0.19906578  0.38873766  0.48042933    -0.39800
C416        C  0.23113914  0.38888739  0.45216998     0.21000
N417        N  0.30602318  0.38989524  0.43729494    -0.33100
C418        C  0.26684272  0.38983201  0.39594532    -0.10600
C419        C  0.21934817  0.38928120  0.40363819    -0.29400
N420        N  0.20226283  0.39065865  0.56339882    -0.46000
C421        C  0.24127377  0.39323232  0.60463065    -0.05300
C422        C  0.28873074  0.39394192  0.59689197    -0.22700
H423        H  0.35062003  0.39263659  0.53510501     0.19100
H424        H  0.15760023  0.38820925  0.46555513     0.17900
H425        H  0.18156523  0.38956868  0.37745753     0.14200
H426        H  0.32633428  0.39623830  0.62291765     0.14100
H427        H  0.34529827  0.39116198  0.44185603     0.32200
H428        H  0.16291246  0.39033338  0.55875848     0.35000
C429        C  0.78810924  0.72653025  0.26014678     0.20600
C430        C  0.79801937  0.75322169  0.28485855    -0.39300
C431        C  0.75936584  0.77473438  0.27024337     0.19600
C432        C  0.71419170  0.77019847  0.23369237     0.22200
C433        C  0.70423418  0.74346169  0.20889706    -0.39800
C434        C  0.74282347  0.72182575  0.22376540     0.21000
N435        N  0.81672458  0.70184218  0.27007041    -0.33100
C436        C  0.78900396  0.68096940  0.24060547    -0.10600
C437        C  0.74300358  0.69279627  0.21073894    -0.29400
N438        N  0.68528004  0.79485753  0.22470851    -0.46000
C439        C  0.71266070  0.81536249  0.25536356    -0.05300
C440        C  0.75876294  0.80339467  0.28460483    -0.22700
H441        H  0.83320142  0.75693789  0.31357476     0.19100
H442        H  0.66884497  0.73966306  0.18046606     0.17900
H443        H  0.71167784  0.68104392  0.18601223     0.14200
H444        H  0.78981992  0.81488936  0.31010005     0.14100
H445        H  0.85043062  0.69867744  0.29832475     0.32200
H446        H  0.65142203  0.79824695  0.19671150     0.35000
C447        C  0.02138686  0.47778838  0.53038376     0.20600
C448        C  0.98502623  0.47184058  0.48630069    -0.39300
C449        C  0.96305808  0.49643416  0.45937094     0.19600
C450        C  0.97627022  0.52470667  0.47546107     0.22200
C451        C  0.01244373  0.53064859  0.51966707    -0.39800
C452        C  0.03456295  0.50604598  0.54654142     0.21000
N453        N  0.04761445  0.45819657  0.56237898    -0.33100
C454        C  0.07753846  0.47396593  0.59943215    -0.10600
C455        C  0.07063842  0.50399178  0.59087597    -0.29400
N456        N  0.95181928  0.54426083  0.44254190    -0.46000
C457        C  0.92317303  0.52841003  0.40498892    -0.05300
C458        C  0.92875183  0.49842153  0.41423662    -0.22700
H459        H  0.97510783  0.44969334  0.47369608     0.19100
H460        H  0.02297162  0.55278928  0.53195208     0.17900
H461        H  0.08876362  0.52180434  0.61413751     0.14200
H462        H  0.91164633  0.48056319  0.39060990     0.14100
H463        H  0.04454967  0.43544851  0.55949684     0.32200
H464        H  0.95578163  0.56697956  0.44492537     0.35000
C465        C  0.63086413  0.46786934  0.25667020     0.20600
C466        C  0.61023706  0.44526980  0.27703009    -0.39300
C467        C  0.55725636  0.43988554  0.25593517     0.19600
C468        C  0.52748936  0.45588165  0.21760534     0.22200
C469        C  0.54788812  0.47844621  0.19764318    -0.39800
C470        C  0.60033612  0.48380926  0.21865208     0.21000
N471        N  0.67884095  0.47901122  0.27209674    -0.33100
C472        C  0.67801453  0.50245927  0.24403177    -0.10600
C473        C  0.62983063  0.50591093  0.21028945    -0.29400
N474        N  0.47751808  0.44969548  0.20797852    -0.46000
C475        C  0.47453467  0.42991682  0.24064505    -0.05300
C476        C  0.52376516  0.42279329  0.27074391    -0.22700
H477        H  0.63309914  0.43373967  0.30831470     0.19100
H478        H  0.52397941  0.49193229  0.16929551     0.17900
H479        H  0.61745453  0.52311828  0.18423064     0.14200
H480        H  0.53317773  0.40998276  0.30278085     0.14100
H481        H  0.70927187  0.47212522  0.30132175     0.32200
H482        H  0.44686339  0.46066212  0.18375398     0.35000
C483        C  0.05611757  0.55871097  0.25611639     0.20600
C484        C  0.10895988  0.55448593  0.28042702    -0.39300
C485        C  0.13358166  0.53203294  0.26283198     0.19600
C486        C  0.10710179  0.51521473  0.22418996     0.22200
C487        C  0.05499642  0.51965699  0.19969991    -0.39800
C488        C  0.03064700  0.54193063  0.21706328     0.21000
N489        N  0.02202823  0.57453751  0.27051110    -0.33100
C490        C  0.97478292  0.56710273  0.24106269    -0.10600
C491        C  0.97901733  0.54743934  0.20662513    -0.29400
N492        N  0.13656752  0.49326310  0.21729789    -0.46000
C493        C  0.18260549  0.49584745  0.25136459    -0.05300
C494        C  0.18271371  0.52006103  0.28039946    -0.22700
H495        H  0.12857856  0.56647839  0.31235107     0.19100
H496        H  0.03403552  0.50538703  0.17110155     0.17900
H497        H  0.94816023  0.53556177  0.18152356     0.14200
H498        H  0.21328770  0.52685809  0.31155213     0.14100
H499        H  0.02996441  0.58652832  0.30188461     0.32200
H500        H  0.12538173  0.47680993  0.19157830     0.35000
C501        C  0.76016816  0.72047046  0.76369658     0.20600
C502        C  0.80184257  0.73980751  0.77512331    -0.39300
C503        C  0.79055628  0.76843691  0.75822069     0.19600
C504        C  0.74135017  0.77705183  0.73200475     0.22200
C505        C  0.69955402  0.75766488  0.72047117    -0.39800
C506        C  0.71090301  0.72894284  0.73737989     0.21000
N507        N  0.76196594  0.69174710  0.77291278    -0.33100
C508        C  0.71382803  0.68147244  0.75186009    -0.10600
C509        C  0.68045573  0.70417961  0.72988427    -0.29400
N510        N  0.73988629  0.80591334  0.72351783    -0.46000
C511        C  0.78823708  0.81591850  0.74502771    -0.05300
C512        C  0.82124153  0.79301198  0.76634009    -0.22700
H513        H  0.84026855  0.73302992  0.79581130     0.19100
H514        H  0.66108376  0.76448113  0.69996659     0.17900
H515        H  0.64079374  0.70235999  0.70779259     0.14200
H516        H  0.86082878  0.79458358  0.78871975     0.14100
H517        H  0.79500717  0.67944156  0.78968746     0.32200
H518        H  0.70697499  0.81844005  0.70721895     0.35000
C519        C  0.47618768  0.49824336  0.45427638     0.20600
C520        C  0.49955873  0.52401343  0.47611601    -0.39300
C521        C  0.52912249  0.52129218  0.52365927     0.19600
C522        C  0.53542122  0.49492833  0.54768053     0.22200
C523        C  0.51223113  0.46909204  0.52573902    -0.39800
C524        C  0.48239401  0.47184732  0.47820244     0.21000
N525        N  0.44544570  0.49511238  0.40954342    -0.33100
C526        C  0.43209774  0.46649980  0.40504971    -0.10600
C527        C  0.45448262  0.45127373  0.44702495    -0.29400
N528        N  0.56449008  0.49842981  0.59296915    -0.46000
C529        C  0.57630766  0.52727995  0.59762602    -0.05300
C530        C  0.55508122  0.54218149  0.55517989    -0.22700
H531        H  0.49456772  0.54472459  0.45765322     0.19100
H532        H  0.51662813  0.44846868  0.54438200     0.17900
H533        H  0.45086428  0.42823031  0.45373063     0.14200
H534        H  0.55768546  0.56532356  0.54851072     0.14100
H535        H  0.43466814  0.51134163  0.38357789     0.32200
H536        H  0.57465500  0.48238068  0.61925884     0.35000
C537        C  0.72752332  0.60528584  0.44761947     0.20600
C538        C  0.69379145  0.59997059  0.47335573    -0.39300
C539        C  0.71485393  0.60303459  0.52251582     0.19600
C540        C  0.76584293  0.61023057  0.54462552     0.22200
C541        C  0.79938286  0.61585720  0.51888114    -0.39800
C542        C  0.77808513  0.61328775  0.46970189     0.21000
N543        N  0.71775791  0.60260967  0.40063655    -0.33100
C544        C  0.76251348  0.60918190  0.39295587    -0.10600
C545        C  0.80071994  0.61613357  0.43515978    -0.29400
N546        N  0.77675964  0.61082780  0.59185947    -0.46000
C547        C  0.73196497  0.60453265  0.59953193    -0.05300
C548        C  0.69261247  0.59958714  0.55728416    -0.22700
H549        H  0.65422139  0.59368596  0.45644638     0.19100
H550        H  0.83925337  0.62151362  0.53586626     0.17900
H551        H  0.84059884  0.62114336  0.44017266     0.14200
H552        H  0.65313813  0.59383632  0.55278105     0.14100
H553        H  0.68357287  0.59583550  0.37577818     0.32200
H554        H  0.81194739  0.61561461  0.61706694     0.35000
C555        C  0.75332537  0.57938192  0.03865269     0.20600
C556        C  0.74699876  0.59685141  0.99863820    -0.39300
C557        C  0.75277457  0.58225614  0.95911053     0.19600
C558        C  0.76336980  0.55249631  0.95935566     0.22200
C559        C  0.77066856  0.53519757  0.99956043    -0.39800
C560        C  0.76536558  0.54982093  0.03911541     0.21000
N561        N  0.74976481  0.58787748  0.08068411    -0.33100
C562        C  0.76027993  0.56359492  0.10816418    -0.10600
C563        C  0.77029578  0.53946907  0.08346110    -0.29400
N564        N  0.76329816  0.54339035  0.91655116    -0.46000
C565        C  0.75332626  0.56757503  0.88901765    -0.05300
C566        C  0.74693707  0.59232503  0.91428751    -0.22700
H567        H  0.73768358  0.61998098  0.99813861     0.19100
H568        H  0.77920176  0.51197196  0.99983595     0.17900
H569        H  0.78066013  0.51743586  0.09648624     0.14200
H570        H  0.73647524  0.61428161  0.90092661     0.14100
H571        H  0.74229192  0.60903870  0.09052506     0.32200
H572        H  0.76845889  0.52194437  0.90635085     0.35000
C573        C  0.89972636  0.48275888  0.78044854     0.20600
C574        C  0.95176523  0.47826799  0.80549178    -0.39300
C575        C  0.97714762  0.45710747  0.78684021     0.19600
C576        C  0.95255268  0.44136589  0.74629689     0.22200
C577        C  0.90002359  0.44568598  0.72138612    -0.39800
C578        C  0.87448541  0.46699510  0.74011116     0.21000
N579        N  0.86948613  0.50418000  0.78786176    -0.33100
C580        C  0.82447142  0.50224474  0.75224888    -0.10600
C581        C  0.82560289  0.47899214  0.72194617    -0.29400
N582        N  0.98713901  0.42638258  0.73152276    -0.46000
C583        C  0.03396695  0.43326285  0.76218532    -0.05300
C584        C  0.02899853  0.45187405  0.79767520    -0.22700
H585        H  0.97193189  0.49178957  0.83544156     0.19100
H586        H  0.88132054  0.43468353  0.68823947     0.17900
H587        H  0.79622948  0.47311164  0.68936217     0.14200
H588        H  0.05951233  0.46315884  0.82411159     0.14100
H589        H  0.87966633  0.52007685  0.81461519     0.32200
H590        H  0.97983391  0.41530098  0.69937838     0.35000
C591        C  0.40385852  0.51629718  0.78272231     0.20600
C592        C  0.45645894  0.51950927  0.80606009    -0.39300
C593        C  0.48035162  0.54221145  0.79000923     0.19600
C594        C  0.45397842  0.56043191  0.75323678     0.22200
C595        C  0.40081631  0.55737449  0.73009478    -0.39800
C596        C  0.37666518  0.53459413  0.74640305     0.21000
N597        N  0.37428179  0.49443136  0.78836274    -0.33100
C598        C  0.32759748  0.49859496  0.75579246    -0.10600
C599        C  0.32711776  0.52371236  0.72908745    -0.29400
N600        N  0.48724133  0.57660602  0.73914938    -0.46000
C601        C  0.53490775  0.56801967  0.76639677    -0.05300
C602        C  0.53184904  0.54719680  0.79933681    -0.22700
H603        H  0.47792362  0.50416465  0.83271111     0.19100
H604        H  0.38048165  0.57054943  0.69980099     0.17900
H605        H  0.29594306  0.53180670  0.69938786     0.14200
H606        H  0.56310170  0.53431455  0.82228455     0.14100
H607        H  0.38576673  0.47698560  0.81225356     0.32200
H608        H  0.47828744  0.58963408  0.70896243     0.35000
loop_ 
_geom_bond_atom_site_label_1 
_geom_bond_atom_site_label_2 
_geom_bond_distance 
_geom_bond_site_symmetry_2 
_ccdc_geom_bond_type 
Fe1          O17   2.038       .  S
Fe1           O7   2.057       .  S
Fe1          O14   2.073       .  S
Fe1           O6   2.061       .  S
Fe1          O12   1.948       .  S
Fe2           O5   2.081       .  S
Fe2           O9   2.079       .  S
Fe2          O13   2.073       .  S
Fe2          O18   2.042       .  S
Fe2          O12   1.958       .  S
Fe3          O21   2.050       .  S
Fe3           O8   2.075       .  S
Fe3          O15   2.095       .  S
Fe3           O4   2.070       .  S
Fe3          O12   1.953       .  S
O4           C11   1.261       .  A
O5           C19   1.273       .  A
O6           C11   1.260       .  A
O7           C10   1.275       .  A
O8           C20   1.270       .  A
O9           C22   1.266       .  A
C10          O15   1.280       .  A
C10         C565   1.464       .  S
C11         C580   1.470       .  S
O13          C16   1.277       .  A
O14          C16   1.280       .  A
C16         C547   1.465       .  S
O17          C22   1.258       .  A
O18          C20   1.265       .  A
C19          O21   1.269       .  A
C19         C601   1.471       .  S
C20         C529   1.465       .  S
C22         C508   1.471       .  S
Fe23         O39   2.055       .  S
Fe23         O29   2.085       .  S
Fe23         O36   2.070       .  S
Fe23         O28   2.048       .  S
Fe23         O34   1.957       .  S
Fe24         O27   2.074       .  S
Fe24         O31   2.081       .  S
Fe24         O35   2.084       .  S
Fe24         O40   2.059       .  S
Fe24         O34   1.964       .  S
Fe25         O43   2.050       .  S
Fe25         O30   2.079       .  S
Fe25         O37   2.064       .  S
Fe25         O26   2.077       .  S
Fe25         O34   1.969       .  S
O26          C33   1.267       .  A
O27          C41   1.271       .  A
O28          C33   1.260       .  A
O29          C32   1.280       .  A
O30          C42   1.271       .  A
O31          C44   1.263       .  A
C32          O37   1.274       .  A
C32         C544   1.472       .  S
C33         C436   1.475       .  S
O35          C38   1.279       .  A
O36          C38   1.277       .  A
C38         C562   1.470       .  S
O39          C44   1.261       .  A
O40          C42   1.270       .  A
C41          O43   1.266       .  A
C41         C457   1.469       .  S
C42         C490   1.474       .  S
C44         C472   1.477       .  S
Fe45         O61   2.063       .  S
Fe45         O51   2.036       .  S
Fe45         O58   2.056       .  S
Fe45         O50   2.074       .  S
Fe45         O56   1.952       .  S
Fe46         O49   2.054       .  S
Fe46         O53   2.092       .  S
Fe46         O57   2.078       .  S
Fe46         O62   2.070       .  S
Fe46         O56   1.954       .  S
Fe47         O65   2.091       .  S
Fe47         O52   2.044       .  S
Fe47         O59   2.083       .  S
Fe47         O48   2.073       .  S
Fe47         O56   1.961       .  S
O48          C55   1.277       .  A
O49          C63   1.270       .  A
O50          C55   1.280       .  A
O51          C54   1.258       .  A
O52          C64   1.265       .  A
O53          C66   1.279       .  A
C54          O59   1.268       .  A
C54         C382   1.472       .  S
C55         C418   1.466       .  S
O57          C60   1.262       .  A
O58          C60   1.260       .  A
C60         C493   1.473       .  S
O61          C66   1.276       .  A
O62          C64   1.270       .  A
C63          O65   1.276       .  A
C63         C475   1.476       .  S
C64         C526   1.464       .  S
C66         C403   1.468       .  S
Fe67         O83   2.064       .  S
Fe67         O73   2.043       .  S
Fe67         O80   2.050       .  S
Fe67         O72   2.077       .  S
Fe67         O78   1.956       .  S
Fe68         O71   2.059       .  S
Fe68         O75   2.095       .  S
Fe68         O79   2.076       .  S
Fe68         O84   2.083       .  S
Fe68         O78   1.963       .  S
Fe69         O87   2.074       .  S
Fe69         O74   2.044       .  S
Fe69         O81   2.078       .  S
Fe69         O70   2.064       .  S
Fe69         O78   1.965       .  S
O70          C77   1.274       .  A
O71          C85   1.270       .  A
O72          C77   1.279       .  A
O73          C76   1.259       .  A
O74          C86   1.265       .  A
O75          C88   1.280       .  A
C76          O81   1.267       .  A
C76         C364   1.474       .  S
C77         C421   1.467       .  S
O79          C82   1.263       .  A
O80          C82   1.260       .  A
C82         C598   1.470       .  S
O83          C88   1.276       .  A
O84          C86   1.272       .  A
C85          O87   1.271       .  A
C85         C583   1.471       .  S
C86         C454   1.470       .  S
C88         C400   1.471       .  S
Fe89        O105   2.064       .  S
Fe89         O95   2.043       .  S
Fe89        O102   2.054       .  S
Fe89         O94   2.075       .  S
Fe89        O100   1.957       .  S
Fe90         O93   2.056       .  S
Fe90         O97   2.091       .  S
Fe90        O101   2.074       .  S
Fe90        O106   2.076       .  S
Fe90        O100   1.962       .  S
Fe91        O109   2.089       .  S
Fe91         O96   2.041       .  S
Fe91        O103   2.079       .  S
Fe91         O92   2.073       .  S
Fe91        O100   1.966       .  S
O92          C99   1.277       .  A
O93         C107   1.270       .  A
O94          C99   1.279       .  A
O95          C98   1.259       .  A
O96         C108   1.264       .  A
O97         C110   1.279       .  A
C98         O103   1.267       .  A
C98         C439   1.475       .  S
C99         C292   1.469       .  S
O101        C104   1.262       .  A
O102        C104   1.261       .  A
C104        C328   1.471       .  S
O105        C110   1.276       .  A
O106        C108   1.270       .  A
C107        O109   1.276       .  A
C107        C349   1.477       .  S
C108        C274   1.468       .  S
C110        C313   1.470       .  S
Fe111       O127   2.064       .  S
Fe111       O117   2.028       .  S
Fe111       O124   2.046       .  S
Fe111       O116   2.078       .  S
Fe111       O122   1.957       .  S
Fe112       O115   2.060       .  S
Fe112       O119   2.089       .  S
Fe112       O123   2.089       .  S
Fe112       O128   2.075       .  S
Fe112       O122   1.960       .  S
Fe113       O131   2.081       .  S
Fe113       O118   2.051       .  S
Fe113       O125   2.083       .  S
Fe113       O114   2.069       .  S
Fe113       O122   1.968       .  S
O114        C121   1.276       .  A
O115        C129   1.270       .  A
O116        C121   1.280       .  A
O117        C120   1.255       .  A
O118        C130   1.267       .  A
O119        C132   1.279       .  A
C120        O125   1.267       .  A
C120        C511   1.471       .  S
C121        C295   1.467       .  S
O123        C126   1.265       .  A
O124        C126   1.258       .  A
C126        C238   1.478       .  S
O127        C132   1.277       .  A
O128        C130   1.272       .  A
C129        O131   1.273       .  A
C129        C256   1.474       .  S
C130        C223   1.468       .  S
C132        C310   1.467       .  S
Fe133       O149   2.033       .  S
Fe133       O139   2.077       .  S
Fe133       O146   2.088       .  S
Fe133       O138   2.052       .  S
Fe133       O144   1.953       .  S
Fe134       O137   2.076       .  S
Fe134       O141   2.079       .  S
Fe134       O145   2.062       .  S
Fe134       O150   2.052       .  S
Fe134       O144   1.974       .  S
Fe135       O153   2.052       .  S
Fe135       O140   2.070       .  S
Fe135       O147   2.086       .  S
Fe135       O136   2.081       .  S
Fe135       O144   1.961       .  S
O136        C143   1.263       .  A
O137        C151   1.271       .  A
O138        C143   1.260       .  A
O139        C142   1.279       .  A
O140        C152   1.270       .  A
O141        C154   1.266       .  A
C142        O147   1.278       .  A
C142        C184   1.475       .  S
C143        C346   1.477       .  S
O145        C148   1.274       .  A
O146        C148   1.281       .  A
C148        C205   1.472       .  S
O149        C154   1.258       .  A
O150        C152   1.267       .  A
C151        O153   1.268       .  A
C151        C331   1.469       .  S
C152        C220   1.467       .  S
C154        C385   1.472       .  S
Fe155       O171   2.043       .  S
Fe155       O161   2.064       .  S
Fe155       O168   2.078       .  S
Fe155       O160   2.062       .  S
Fe155       O166   1.954       .  S
Fe156       O159   2.088       .  S
Fe156       O163   2.081       .  S
Fe156       O167   2.076       .  S
Fe156       O172   2.042       .  S
Fe156       O166   1.967       .  S
Fe157       O175   2.056       .  S
Fe157       O162   2.079       .  S
Fe157       O169   2.101       .  S
Fe157       O158   2.076       .  S
Fe157       O166   1.959       .  S
O158        C165   1.262       .  A
O159        C173   1.275       .  A
O160        C165   1.261       .  A
O161        C164   1.277       .  A
O162        C174   1.271       .  A
O163        C176   1.266       .  A
C164        O169   1.281       .  A
C164        C187   1.471       .  S
C165        C259   1.476       .  S
O167        C170   1.279       .  A
O168        C170   1.281       .  A
C170        C202   1.471       .  S
O171        C176   1.258       .  A
O172        C174   1.264       .  A
C173        O175   1.270       .  A
C173        C241   1.477       .  S
C174        C277   1.468       .  S
C176        C367   1.476       .  S
C177        C182   1.384       .  A
C177        C178   1.405       .  A
C177        N183   1.343       .  A
C178        C179   1.404       .  A
C178        H189   1.082       .  S
C179        C188   1.381       .  A
C179        C180   1.384       .  A
C180        C181   1.405       .  A
C180        N186   1.343       .  A
C181        C182   1.403       .  A
C181        H190   1.082       .  S
C182        C185   1.381       .  A
N183        C184   1.357       .  A
N183        H193   1.045       .  S
C184        C185   1.396       .  A
C185        H191   1.082       .  S
N186        C187   1.355       .  A
N186        H194   1.045       .  S
C187        C188   1.396       .  A
C188        H192   1.082       .  S
C195        C200   1.385       .  A
C195        C196   1.402       .  A
C195        N201   1.347       .  A
C196        C197   1.404   1_556  A
C196        H207   1.082       .  S
C197        C206   1.372       .  A
C197        C198   1.385       .  A
C198        C199   1.402       .  A
C198        N204   1.348       .  A
C199        C200   1.404   1_554  A
C199        H208   1.082       .  S
C200        C203   1.373       .  A
N201        C202   1.355       .  A
N201        H211   1.043       .  S
C202        C203   1.396       .  A
C203        H209   1.083       .  S
N204        C205   1.355       .  A
N204        H212   1.043       .  S
C205        C206   1.397       .  A
C206        H210   1.083       .  S
C213        C218   1.385   1_565  A
C213        C214   1.402       .  A
C213        N219   1.344   1_565  A
C214        C215   1.403   1_454  A
C214        H225   1.082       .  S
C215        C224   1.374       .  A
C215        C216   1.385   1_565  A
C216        C217   1.400       .  A
C216        N222   1.343   1_545  A
C217        C218   1.401   1_656  A
C217        H226   1.082       .  S
C218        C221   1.372       .  A
N219        C220   1.355       .  A
N219        H229   1.045   1_545  S
C220        C221   1.395       .  A
C221        H227   1.083       .  S
N222        C223   1.354       .  A
N222        H230   1.045   1_565  S
C223        C224   1.396       .  A
C224        H228   1.083       .  S
C231        C236   1.383       .  A
C231        C232   1.401       .  A
C231        N237   1.339   1_545  A
C232        C233   1.399       .  A
C232        H243   1.083   1_545  S
C233        C242   1.374       .  A
C233        C234   1.384       .  A
C234        C235   1.411       .  A
C234        N240   1.349       .  A
C235        C236   1.409       .  A
C235        H244   1.082       .  S
C236        C239   1.390       .  A
N237        C238   1.356       .  A
N237        H247   1.043       .  S
C238        C239   1.399   1_565  A
C239        H245   1.082       .  S
N240        C241   1.359       .  A
N240        H248   1.045       .  S
C241        C242   1.396       .  A
C242        H246   1.083       .  S
C249        C254   1.385       .  A
C249        C250   1.400       .  A
C249        N255   1.341   1_455  A
C250        C251   1.398       .  A
C250        H261   1.083       .  S
C251        C260   1.372   1_565  A
C251        C252   1.384       .  A
C252        C253   1.410       .  A
C252        N258   1.351       .  A
C253        C254   1.412       .  A
C253        H262   1.082       .  S
C254        C257   1.387       .  A
N255        C256   1.354       .  A
N255        H265   1.045       .  S
C256        C257   1.401   1_655  A
C257        H263   1.082       .  S
N258        C259   1.359   1_565  A
N258        H266   1.046       .  S
C259        C260   1.393       .  A
C260        H264   1.083       .  S
C267        C272   1.385   1_545  A
C267        C268   1.402       .  A
C267        N273   1.346   1_545  A
C268        C269   1.403   1_554  A
C268        H279   1.082       .  S
C269        C278   1.372       .  A
C269        C270   1.385   1_545  A
C270        C271   1.399       .  A
C270        N276   1.344   1_565  A
C271        C272   1.400   1_556  A
C271        H280   1.082       .  S
C272        C275   1.369       .  A
N273        C274   1.355       .  A
N273        H283   1.045   1_565  S
C274        C275   1.394       .  A
C275        H281   1.083       .  S
N276        C277   1.353       .  A
N276        H284   1.045   1_545  S
C277        C278   1.397       .  A
C278        H282   1.083       .  S
C285        C290   1.384       .  A
C285        C286   1.404   1_554  A
C285        N291   1.339       .  A
C286        C287   1.400       .  A
C286        H297   1.082       .  S
C287        C296   1.382       .  A
C287        C288   1.384       .  A
C288        C289   1.404   1_556  A
C288        N294   1.339       .  A
C289        C290   1.401       .  A
C289        H298   1.082       .  S
C290        C293   1.382       .  A
N291        C292   1.356       .  A
N291        H301   1.044       .  S
C292        C293   1.395       .  A
C293        H299   1.082       .  S
N294        C295   1.356       .  A
N294        H302   1.045       .  S
C295        C296   1.394       .  A
C296        H300   1.082       .  S
C303        C308   1.385       .  A
C303        C304   1.402       .  A
C303        N309   1.342       .  A
C304        C305   1.401       .  A
C304        H315   1.082       .  S
C305        C314   1.376       .  A
C305        C306   1.385       .  A
C306        C307   1.404       .  A
C306        N312   1.344       .  A
C307        C308   1.404       .  A
C307        H316   1.082       .  S
C308        C311   1.379       .  A
N309        C310   1.354       .  A
N309        H319   1.044       .  S
C310        C311   1.395       .  A
C311        H317   1.082       .  S
N312        C313   1.356       .  A
N312        H320   1.045       .  S
C313        C314   1.394       .  A
C314        H318   1.082       .  S
C321        C326   1.384       .  A
C321        C322   1.410       .  A
C321        N327   1.350       .  A
C322        C323   1.410       .  A
C322        H333   1.082       .  S
C323        C332   1.386       .  A
C323        C324   1.385       .  A
C324        C325   1.397       .  A
C324        N330   1.337   1_655  A
C325        C326   1.395       .  A
C325        H334   1.083       .  S
C326        C329   1.368   1_545  A
N327        C328   1.358   1_545  A
N327        H337   1.046       .  S
C328        C329   1.391       .  A
C329        H335   1.083       .  S
N330        C331   1.353       .  A
N330        H338   1.045       .  S
C331        C332   1.400   1_455  A
C332        H336   1.082       .  S
C339        C344   1.384       .  A
C339        C340   1.410       .  A
C339        N345   1.351       .  A
C340        C341   1.411       .  A
C340        H351   1.082       .  S
C341        C350   1.387       .  A
C341        C342   1.384       .  A
C342        C343   1.400       .  A
C342        N348   1.341       .  A
C343        C344   1.399       .  A
C343        H352   1.083       .  S
C344        C347   1.372   1_565  A
N345        C346   1.358   1_565  A
N345        H355   1.047       .  S
C346        C347   1.394       .  A
C347        H353   1.083       .  S
N348        C349   1.356       .  A
N348        H356   1.044       .  S
C349        C350   1.400       .  A
C350        H354   1.082       .  S
C357        C362   1.383       .  A
C357        C358   1.406       .  A
C357        N363   1.341       .  A
C358        C359   1.403       .  A
C358        H369   1.082       .  S
C359        C368   1.385       .  A
C359        C360   1.383       .  A
C360        C361   1.406       .  A
C360        N366   1.341       .  A
C361        C362   1.403       .  A
C361        H370   1.082       .  S
C362        C365   1.384       .  A
N363        C364   1.358       .  A
N363        H373   1.047       .  S
C364        C365   1.396       .  A
C365        H371   1.082       .  S
N366        C367   1.358       .  A
N366        H374   1.047       .  S
C367        C368   1.397       .  A
C368        H372   1.082       .  S
C375        C380   1.384       .  A
C375        C376   1.402       .  A
C375        N381   1.347       .  A
C376        C377   1.403       .  A
C376        H387   1.082       .  S
C377        C386   1.371       .  A
C377        C378   1.384       .  A
C378        C379   1.404       .  A
C378        N384   1.348       .  A
C379        C380   1.406       .  A
C379        H388   1.082       .  S
C380        C383   1.374       .  A
N381        C382   1.355       .  A
N381        H391   1.045       .  S
C382        C383   1.399       .  A
C383        H389   1.083       .  S
N384        C385   1.356       .  A
N384        H392   1.045       .  S
C385        C386   1.397       .  A
C386        H390   1.083       .  S
C393        C398   1.385       .  A
C393        C394   1.402   1_556  A
C393        N399   1.343       .  A
C394        C395   1.402       .  A
C394        H405   1.082   1_554  S
C395        C404   1.376       .  A
C395        C396   1.384       .  A
C396        C397   1.405       .  A
C396        N402   1.345       .  A
C397        C398   1.404   1_554  A
C397        H406   1.082       .  S
C398        C401   1.379       .  A
N399        C400   1.355       .  A
N399        H409   1.044       .  S
C400        C401   1.396       .  A
C401        H407   1.082       .  S
N402        C403   1.356       .  A
N402        H410   1.045       .  S
C403        C404   1.394       .  A
C404        H408   1.082       .  S
C411        C416   1.384       .  A
C411        C412   1.403       .  A
C411        N417   1.338       .  A
C412        C413   1.400       .  A
C412        H423   1.082       .  S
C413        C422   1.382       .  A
C413        C414   1.384       .  A
C414        C415   1.404       .  A
C414        N420   1.338       .  A
C415        C416   1.400       .  A
C415        H424   1.082       .  S
C416        C419   1.382       .  A
N417        C418   1.356       .  A
N417        H427   1.045       .  S
C418        C419   1.394       .  A
C419        H425   1.082       .  S
N420        C421   1.356       .  A
N420        H428   1.044       .  S
C421        C422   1.394       .  A
C422        H426   1.082       .  S
C429        C434   1.384       .  A
C429        C430   1.403       .  A
C429        N435   1.346       .  A
C430        C431   1.404       .  A
C430        H441   1.082       .  S
C431        C440   1.375       .  A
C431        C432   1.383       .  A
C432        C433   1.406       .  A
C432        N438   1.349       .  A
C433        C434   1.407       .  A
C433        H442   1.082       .  S
C434        C437   1.378       .  A
N435        C436   1.355       .  A
N435        H445   1.045       .  S
C436        C437   1.399       .  A
C437        H443   1.083       .  S
N438        C439   1.358       .  A
N438        H446   1.045       .  S
C439        C440   1.397       .  A
C440        H444   1.083       .  S
C447        C452   1.384       .  A
C447        C448   1.403   1_455  A
C447        N453   1.339       .  A
C448        C449   1.400       .  A
C448        H459   1.082       .  S
C449        C458   1.381       .  A
C449        C450   1.384       .  A
C450        C451   1.404   1_655  A
C450        N456   1.339       .  A
C451        C452   1.401       .  A
C451        H460   1.082       .  S
C452        C455   1.382       .  A
N453        C454   1.357       .  A
N453        H463   1.043       .  S
C454        C455   1.395       .  A
C455        H461   1.082       .  S
N456        C457   1.356       .  A
N456        H464   1.043       .  S
C457        C458   1.395       .  A
C458        H462   1.082       .  S
C465        C470   1.384       .  A
C465        C466   1.411       .  A
C465        N471   1.352       .  A
C466        C467   1.412       .  A
C466        H477   1.082       .  S
C467        C476   1.387       .  A
C467        C468   1.384       .  A
C468        C469   1.400       .  A
C468        N474   1.341       .  A
C469        C470   1.398       .  A
C469        H478   1.083       .  S
C470        C473   1.371       .  A
N471        C472   1.359       .  A
N471        H481   1.046       .  S
C472        C473   1.393       .  A
C473        H479   1.083       .  S
N474        C475   1.355       .  A
N474        H482   1.045       .  S
C475        C476   1.401       .  A
C476        H480   1.082       .  S
C483        C488   1.384       .  A
C483        C484   1.412       .  A
C483        N489   1.349       .  A
C484        C485   1.410       .  A
C484        H495   1.082       .  S
C485        C494   1.390       .  A
C485        C486   1.384       .  A
C486        C487   1.397       .  A
C486        N492   1.337       .  A
C487        C488   1.396       .  A
C487        H496   1.083       .  S
C488        C491   1.372   1_455  A
N489        C490   1.360   1_455  A
N489        H499   1.045       .  S
C490        C491   1.393       .  A
C491        H497   1.083       .  S
N492        C493   1.353       .  A
N492        H500   1.046       .  S
C493        C494   1.400       .  A
C494        H498   1.082       .  S
C501        C506   1.383       .  A
C501        C502   1.403       .  A
C501        N507   1.338       .  A
C502        C503   1.399       .  A
C502        H513   1.082       .  S
C503        C512   1.382       .  A
C503        C504   1.383       .  A
C504        C505   1.407       .  A
C504        N510   1.340       .  A
C505        C506   1.403       .  A
C505        H514   1.082       .  S
C506        C509   1.385       .  A
N507        C508   1.356       .  A
N507        H517   1.046       .  S
C508        C509   1.397       .  A
C509        H515   1.082       .  S
N510        C511   1.359       .  A
N510        H518   1.046       .  S
C511        C512   1.393       .  A
C512        H516   1.082       .  S
C519        C524   1.385       .  A
C519        C520   1.399       .  A
C519        N525   1.342       .  A
C520        C521   1.400       .  A
C520        H531   1.082       .  S
C521        C530   1.370       .  A
C521        C522   1.385       .  A
C522        C523   1.401       .  A
C522        N528   1.344       .  A
C523        C524   1.402       .  A
C523        H532   1.082       .  S
C524        C527   1.373       .  A
N525        C526   1.353       .  A
N525        H535   1.046       .  S
C526        C527   1.395       .  A
C527        H533   1.083       .  S
N528        C529   1.354       .  A
N528        H536   1.046       .  S
C529        C530   1.394       .  A
C530        H534   1.083       .  S
C537        C542   1.385       .  A
C537        C538   1.402       .  A
C537        N543   1.348       .  A
C538        C539   1.404       .  A
C538        H549   1.082       .  S
C539        C548   1.372       .  A
C539        C540   1.386       .  A
C540        C541   1.401       .  A
C540        N546   1.346       .  A
C541        C542   1.403       .  A
C541        H550   1.082       .  S
C542        C545   1.371       .  A
N543        C544   1.356       .  A
N543        H553   1.042       .  S
C544        C545   1.397       .  A
C545        H551   1.083       .  S
N546        C547   1.354       .  A
N546        H554   1.042       .  S
C547        C548   1.395       .  A
C548        H552   1.083       .  S
C555        C560   1.384       .  A
C555        C556   1.404   1_554  A
C555        N561   1.345       .  A
C556        C557   1.404       .  A
C556        H567   1.082       .  S
C557        C566   1.378       .  A
C557        C558   1.385       .  A
C558        C559   1.401       .  A
C558        N564   1.342       .  A
C559        C560   1.400   1_556  A
C559        H568   1.082       .  S
C560        C563   1.375       .  A
N561        C562   1.356       .  A
N561        H571   1.045       .  S
C562        C563   1.394       .  A
C563        H569   1.082       .  S
N564        C565   1.353       .  A
N564        H572   1.045       .  S
C565        C566   1.395       .  A
C566        H570   1.082       .  S
C573        C578   1.385       .  A
C573        C574   1.399       .  A
C573        N579   1.339       .  A
C574        C575   1.398       .  A
C574        H585   1.083       .  S
C575        C584   1.374   1_655  A
C575        C576   1.384       .  A
C576        C577   1.409       .  A
C576        N582   1.347       .  A
C577        C578   1.407       .  A
C577        H586   1.082       .  S
C578        C581   1.386       .  A
N579        C580   1.353       .  A
N579        H589   1.048       .  S
C580        C581   1.397       .  A
C581        H587   1.082       .  S
N582        C583   1.358   1_655  A
N582        H590   1.045       .  S
C583        C584   1.394       .  A
C584        H588   1.083       .  S
C591        C596   1.384       .  A
C591        C592   1.398       .  A
C591        N597   1.336       .  A
C592        C593   1.397       .  A
C592        H603   1.083       .  S
C593        C602   1.372       .  A
C593        C594   1.384       .  A
C594        C595   1.410       .  A
C594        N600   1.347       .  A
C595        C596   1.407       .  A
C595        H604   1.082       .  S
C596        C599   1.387       .  A
N597        C598   1.353       .  A
N597        H607   1.050       .  S
C598        C599   1.398       .  A
C599        H605   1.082       .  S
N600        C601   1.358       .  A
N600        H608   1.044       .  S
C601        C602   1.394       .  A
C602        H606   1.083       .  S
