geometry optimzed in LAMMPS
_audit_creation_date              2020-12-01 
_audit_creation_method            'lammps2cif' 
_symmetry_space_group_name_H-M    'P1' 
_symmetry_Int_Tables_number       1 
_symmetry_cell_setting            triclinic 
loop_ 
_symmetry_equiv_pos_as_xyz 
  x,y,z 
_cell_length_a                    44.70554375 
_cell_length_b                    39.73023865329364 
_cell_length_c                    26.414895157404743 
_cell_angle_alpha                 89.66608250241184 
_cell_angle_beta                  89.84048424014024 
_cell_angle_gamma                 90.27404211250389 
loop_ 
_atom_site_label 
_atom_site_type_symbol 
_atom_site_fract_x 
_atom_site_fract_y 
_atom_site_fract_z 
_atom_site_charge 
O1          O  0.20199449  0.55497858  0.26197062    -0.82500
C2          C  0.13321589  0.60079718  0.42336111     0.96800
O3          O  0.15695059  0.61570826  0.40893314    -0.71700
O4          O  0.19721644  0.57030918  0.39937068    -0.75300
Al5        Al  0.18411611  0.60375260  0.35506340     1.49000
C6          C  0.20172595  0.53929849  0.39484576     0.92100
O7          O  0.13802506  0.51039324  0.32846190    -0.81500
O8          O  0.12049345  0.59142271  0.25108566    -0.75000
Al9        Al  0.16913613  0.53705274  0.29780455     1.90100
O10         O  0.10178256  0.54600456  0.31913020    -0.74100
O11         O  0.12586351  0.63622130  0.32361570    -0.74000
O12         O  0.11637477  0.58620184  0.39208528    -0.79600
O13         O  0.17399010  0.64220842  0.31439430    -0.77800
O14         O  0.15796669  0.57634762  0.32449456    -1.13900
O15         O  0.21728364  0.59601257  0.31008549    -0.73100
C16         C  0.22173364  0.57598975  0.27397416     0.97600
C17         C  0.11053889  0.51664529  0.32733971     0.94000
Al18       Al  0.11962231  0.58888036  0.32171065     1.55600
O19         O  0.19395891  0.52375037  0.35508938    -0.77800
C20         C  0.14809640  0.65472863  0.31421339     0.98100
C21         C  0.13015432  0.56918180  0.22128037     0.93000
O22         O  0.14644932  0.54490895  0.23642662    -0.83100
O23         O  0.03421321  0.93292824  0.26008267    -0.82500
C24         C  0.11159762  0.90550236  0.41956957     0.96800
O25         O  0.08869753  0.88780260  0.40984347    -0.71700
O26         O  0.04663741  0.93222587  0.40348923    -0.75300
Al27       Al  0.05769445  0.89642665  0.36143372     1.49000
C28         C  0.03658240  0.96065543  0.39117744     0.92100
O29         O  0.09375830  0.98937291  0.31428099    -0.81500
O30         O  0.11416551  0.90565485  0.24343459    -0.75000
Al31       Al  0.06486750  0.95811996  0.29016671     1.90100
O32         O  0.13293245  0.95776857  0.30247144    -0.74100
O33         O  0.11504153  0.86507179  0.32329075    -0.74000
O34         O  0.12597338  0.91999863  0.38425095    -0.79600
O35         O  0.06663204  0.85686510  0.32355762    -0.77800
O36         O  0.08034526  0.92269335  0.32181497    -1.13900
O37         O  0.02110434  0.90068713  0.32345945    -0.73100
C38         C  0.01496386  0.91499098  0.28202182     0.97600
C39         C  0.12145477  0.98641087  0.30762399     0.94000
Al40       Al  0.11895568  0.91291146  0.31412687     1.55600
O41         O  0.03981678  0.97181353  0.34637653    -0.77800
C42         C  0.09286132  0.84545257  0.31923966     0.98100
C43         C  0.10161061  0.92571173  0.21275948     0.93000
O44         O  0.08644549  0.95044553  0.22859559    -0.83100
O45         O  0.15249663  0.94468608  0.72707535    -0.82500
C46         C  0.13859575  0.89176151  0.92334699     0.96800
O47         O  0.11754525  0.89742883  0.89274100    -0.71700
O48         O  0.10382296  0.95255671  0.84851391    -0.75300
Al49       Al  0.11633845  0.91043666  0.82322708     1.49000
C50         C  0.10704334  0.98034872  0.82678025     0.92100
O51         O  0.17974648  0.97693447  0.85289373    -0.81500
O52         O  0.20698623  0.89382910  0.78316582    -0.75000
Al53       Al  0.16562431  0.96008565  0.79028845     1.90100
O54         O  0.20565792  0.93134503  0.87295371    -0.74100
O55         O  0.16594021  0.85196609  0.82272243    -0.74000
O56         O  0.16530071  0.89025364  0.90849702    -0.79600
O57         O  0.12065639  0.86618518  0.80094934    -0.77800
O58         O  0.15500517  0.92102050  0.81943507    -1.13900
O59         O  0.10964907  0.92190326  0.75262489    -0.73100
C60         C  0.12750543  0.93108633  0.71734018     0.97600
C61         C  0.19921412  0.96219784  0.87994183     0.94000
Al62       Al  0.18349293  0.89406154  0.84441161     1.55600
O63         O  0.12930342  0.98490869  0.79862584    -0.77800
C64         C  0.14031440  0.84409424  0.80633026     0.98100
C65         C  0.21711416  0.92030519  0.76283385     0.93000
O66         O  0.20480278  0.94804301  0.77102293    -0.83100
O67         O  0.09769301  0.54812443  0.72589651    -0.82500
C68         C  0.11372861  0.59253207  0.92416696     0.96800
O69         O  0.13408282  0.59106879  0.89118665    -0.71700
O70         O  0.14531428  0.53563502  0.84746662    -0.75300
Al71       Al  0.13440462  0.57825954  0.82219933     1.49000
C72         C  0.14207137  0.50852761  0.82431753     0.92100
O73         O  0.06861511  0.51207082  0.84938855    -0.81500
O74         O  0.04455544  0.59952366  0.78734476    -0.75000
Al75       Al  0.08384160  0.53093422  0.78781056     1.90100
O76         O  0.04419155  0.55788573  0.87194850    -0.74100
O77         O  0.08724091  0.63748928  0.83046379    -0.74000
O78         O  0.08661540  0.59328204  0.91159469    -0.79600
O79         O  0.13053820  0.62260024  0.79941253    -0.77800
O80         O  0.09550349  0.56850343  0.81920309    -1.13900
O81         O  0.14146551  0.56719623  0.75216386    -0.73100
C82         C  0.12311612  0.56094655  0.71677904     0.97600
C83         C  0.04928299  0.52660052  0.87692902     0.94000
Al84       Al  0.06807620  0.59500626  0.84767107     1.55600
O85         O  0.11987395  0.50486267  0.79572075    -0.77800
C86         C  0.11212599  0.64510581  0.81041578     0.98100
C87         C  0.03289454  0.57440116  0.76583857     0.93000
O88         O  0.04504398  0.54596090  0.76906229    -0.83100
O89         O  0.28745594  0.04909779  0.25016532    -0.82500
C90         C  0.35971355  0.09351064  0.09333205     0.96800
O91         O  0.33555626  0.10845816  0.10503100    -0.71700
O92         O  0.29261576  0.06501199  0.11318294    -0.75300
Al93       Al  0.30672199  0.09811151  0.15766883     1.49000
C94         C  0.28785404  0.03401849  0.11835132     0.92100
O95         O  0.35027286  0.00506447  0.18402732    -0.81500
O96         O  0.36556529  0.08478346  0.26884723    -0.75000
Al97       Al  0.31966465  0.03079215  0.21511008     1.90100
O98         O  0.38696978  0.03873949  0.20293672    -0.74100
O99         O  0.36507934  0.13015604  0.19386179    -0.74000
O100        O  0.37587702  0.07991221  0.12695526    -0.79600
O101        O  0.31694134  0.13672940  0.19722131    -0.77800
O102        O  0.33175166  0.07036575  0.19015000    -1.13900
O103        O  0.27306815  0.09144309  0.20286990    -0.73100
C104        C  0.26880262  0.07154364  0.23973174     0.97600
C105        C  0.37762007  0.01002609  0.19112369     0.94000
Al106      Al  0.37002057  0.08247040  0.19748027     1.55600
O107        O  0.29565544  0.01873969  0.15816145    -0.77800
C108        C  0.34289731  0.14905509  0.19973323     0.98100
C109        C  0.35529817  0.06101838  0.29628362     0.93000
O110        O  0.34150196  0.03619833  0.27697244    -0.83100
O111        O  0.45432333  0.44563052  0.23788943    -0.82500
C112        C  0.38485258  0.39452805  0.08346805     0.96800
O113        O  0.40816221  0.37978146  0.09963138    -0.71700
O114        O  0.45051588  0.42452673  0.10828125    -0.75300
Al115      Al  0.43513200  0.39177497  0.15343375     1.49000
C116        C  0.45211172  0.45617606  0.10884877     0.92100
O117        O  0.38710107  0.48559464  0.17651260    -0.81500
O118        O  0.37382313  0.40527028  0.25988998    -0.75000
Al119      Al  0.41955241  0.46054073  0.20481800     1.90100
O120        O  0.35189568  0.44927197  0.19060429    -0.74100
O121        O  0.37619101  0.35948573  0.18478070    -0.74000
O122        O  0.36719712  0.40927601  0.11403532    -0.79600
O123        O  0.42397223  0.35361913  0.19473552    -0.77800
O124        O  0.40889261  0.42000955  0.18194282    -1.13900
O125        O  0.46724044  0.39931131  0.19980145    -0.73100
C126        C  0.47260456  0.42218050  0.23135278     0.97600
C127        C  0.35985682  0.47880344  0.18108646     0.94000
Al128      Al  0.37076227  0.40698324  0.18687813     1.55600
O129        O  0.44123256  0.47282240  0.14510129    -0.77800
C130        C  0.39806413  0.34098359  0.19486879     0.98100
C131        C  0.38509767  0.42839732  0.28748405     0.93000
O132        O  0.39933504  0.45313507  0.26798108    -0.83100
O133        O  0.35613278  0.45981639  0.76602391    -0.82500
C134        C  0.37627079  0.39536061  0.58610543     0.96800
O135        O  0.39187225  0.41400324  0.61500207    -0.71700
O136        O  0.40292900  0.45801357  0.68842568    -0.75300
Al137      Al  0.38747727  0.41386228  0.68776053     1.49000
C138        C  0.39288459  0.48605596  0.67551391     0.92100
O139        O  0.31102358  0.47054932  0.64229186    -0.81500
O140        O  0.29064963  0.39972773  0.69407698    -0.75000
Al141      Al  0.33492765  0.46261898  0.70221901     1.90100
O142        O  0.31146283  0.42184491  0.60289938    -0.74100
O143        O  0.33672061  0.35666223  0.69941888    -0.74000
O144        O  0.35450556  0.37839588  0.60372671    -0.79600
O145        O  0.38439471  0.36634301  0.68976841    -0.77800
O146        O  0.34882380  0.42301479  0.68120420    -1.13900
O147        O  0.38367356  0.41374306  0.76004194    -0.73100
C148        C  0.37076316  0.43598463  0.78678578     0.97600
C149        C  0.30497744  0.45262387  0.60399982     0.94000
Al150      Al  0.32524348  0.39188123  0.65286739     1.55600
O151        O  0.36522480  0.48992184  0.67023330    -0.77800
C152        C  0.36346942  0.34649887  0.70130772     0.98100
C153        C  0.28438813  0.42098094  0.72765053     0.93000
O154        O  0.30242172  0.44416235  0.73806801    -0.83100
O155        O  0.39309666  0.04449159  0.78523345    -0.82500
C156        C  0.38121531  0.09413945  0.58986452     0.96800
O157        O  0.36536190  0.07544447  0.61826321    -0.71700
O158        O  0.35110924  0.03427631  0.69348247    -0.75300
Al159      Al  0.36448186  0.07951920  0.69015061     1.49000
C160        C  0.36343992  0.00605346  0.69552669     0.92100
O161        O  0.44517914  0.02471654  0.67258100    -0.81500
O162        O  0.46249796  0.09640972  0.70527449    -0.75000
Al163      Al  0.41793983  0.03677506  0.72697578     1.90100
O164        O  0.44319683  0.06778985  0.61936119    -0.74100
O165        O  0.41458247  0.13872731  0.70239174    -0.74000
O166        O  0.40134935  0.11261461  0.60858220    -0.79600
O167        O  0.36732359  0.12738750  0.68746935    -0.77800
O168        O  0.40369198  0.07224903  0.69358503    -1.13900
O169        O  0.36114681  0.08377094  0.76111922    -0.73100
C170        C  0.37349918  0.06651020  0.79554831     0.97600
C171        C  0.45114393  0.03808265  0.62972488     0.94000
Al172      Al  0.42829500  0.10146417  0.66217546     1.55600
O173        O  0.39129088  0.00410171  0.69983287    -0.77800
C174        C  0.38746380  0.14804685  0.70034971     0.98100
C175        C  0.46725663  0.07970781  0.74497332     0.93000
O176        O  0.44707717  0.06116195  0.76263577    -0.83100
C177        C  0.37142393  0.31105424  0.71293021    -0.06000
C178        C  0.40173728  0.30270090  0.72033494    -0.05900
C179        C  0.41090222  0.26919384  0.72290315    -0.24100
C180        C  0.38997246  0.24314873  0.71809900     0.18100
C181        C  0.35927270  0.25117305  0.71300827     0.15400
C182        C  0.35013800  0.28503764  0.71070062    -0.19100
C183        C  0.33831723  0.22516832  0.70836512    -0.20900
C184        C  0.34770504  0.19175992  0.70668971    -0.13500
C185        C  0.37830363  0.18342348  0.70937305     0.03200
C186        C  0.39933110  0.20933741  0.71643437    -0.25600
H187        H  0.41870175  0.32219421  0.72248281     0.08300
H188        H  0.43447675  0.26369538  0.72716155     0.11900
H189        H  0.32679006  0.29104069  0.70468175     0.11800
H190        H  0.31471229  0.23067844  0.70473407     0.11500
H191        H  0.33083144  0.17241108  0.70171600     0.12100
H192        H  0.42292171  0.20337767  0.71865545     0.14000
C193        C  0.37998499  0.39530319  0.02773442    -0.06000
C194        C  0.39285693  0.37009223  0.99758698    -0.05900
C195        C  0.39344076  0.37296364  0.94481959    -0.24100
C196        C  0.38154853  0.40140336  0.92075798     0.18100
C197        C  0.36798132  0.42671818  0.95031360     0.15400
C198        C  0.36698638  0.42337874  0.00363375    -0.19100
C199        C  0.35630697  0.45524911  0.92597758    -0.20900
C200        C  0.35795955  0.45859432  0.87314831    -0.13500
C201        C  0.37142391  0.43356732  0.84325001     0.03200
C202        C  0.38321756  0.40497275  0.86767999    -0.25600
H203        H  0.40325475  0.34838157  0.01504134     0.08300
H204        H  0.40387165  0.35324482  0.92287625     0.11900
H205        H  0.35754934  0.44334897  0.02636266     0.11800
H206        H  0.34583103  0.47499524  0.94779075     0.11500
H207        H  0.34835616  0.48073928  0.85562951     0.12100
H208        H  0.39334507  0.38521564  0.84538487     0.14000
C209        C  0.38310216  0.42706542  0.34378024    -0.06000
C210        C  0.39084675  0.45592025  0.37174201    -0.05900
C211        C  0.39268040  0.45488352  0.42445507    -0.24100
C212        C  0.38680833  0.42494404  0.45080816     0.18100
C213        C  0.37831012  0.39584071  0.42357824     0.15400
C214        C  0.37643872  0.39705240  0.37020578    -0.19100
C215        C  0.37184402  0.36609446  0.45034499    -0.20900
C216        C  0.37300776  0.36548777  0.50330778    -0.13500
C217        C  0.38125432  0.39436190  0.53068083     0.03200
C218        C  0.38865442  0.42390596  0.50400986    -0.25600
H219        H  0.39603306  0.47946173  0.35271129     0.08300
H220        H  0.39892345  0.47752949  0.44459865     0.11900
H221        H  0.37060286  0.37455585  0.34933847     0.11800
H222        H  0.36519992  0.34351317  0.43041923     0.11500
H223        H  0.36665764  0.34257701  0.52310377     0.12100
H224        H  0.39414839  0.44657870  0.52475797     0.14000
C225        C  0.36814166  0.08995755  0.03943478    -0.06000
C226        C  0.39492859  0.07374360  0.02625656    -0.05900
C227        C  0.40107845  0.06571451  0.97594447    -0.24100
C228        C  0.38052372  0.07364127  0.93782718     0.18100
C229        C  0.35384859  0.09068902  0.95032183     0.15400
C230        C  0.34786152  0.09882974  0.00098937    -0.19100
C231        C  0.33344693  0.09886060  0.91198052    -0.20900
C232        C  0.33954519  0.09044241  0.86169074    -0.13500
C233        C  0.36591598  0.07325632  0.84899897     0.03200
C234        C  0.38624503  0.06478679  0.88743274    -0.25600
H235        H  0.41083071  0.06637171  0.05506924     0.08300
H236        H  0.42169738  0.05278396  0.96697195     0.11900
H237        H  0.32696165  0.11099338  0.01059649     0.11800
H238        H  0.31288124  0.11192991  0.92082708     0.11500
H239        H  0.32365343  0.09745270  0.83265573     0.12100
H240        H  0.40690024  0.05204225  0.87798263     0.14000
C241        C  0.35871777  0.06200166  0.35182640    -0.06000
C242        C  0.34506363  0.03700121  0.38210650    -0.05900
C243        C  0.34629931  0.03869888  0.43472570    -0.24100
C244        C  0.36121477  0.06539877  0.45812252     0.18100
C245        C  0.37560230  0.09030195  0.42812798     0.15400
C246        C  0.37428144  0.08844997  0.37518084    -0.19100
C247        C  0.39088138  0.11674137  0.45164939    -0.20900
C248        C  0.39192488  0.11845886  0.50434823    -0.13500
C249        C  0.37750959  0.09390909  0.53445768     0.03200
C250        C  0.36208300  0.06748593  0.51101485    -0.25600
H251        H  0.33291638  0.01631758  0.36515642     0.08300
H252        H  0.33532681  0.01927148  0.45712437     0.11900
H253        H  0.38499415  0.10780914  0.35228233     0.11800
H254        H  0.40216743  0.13597062  0.42932610     0.11500
H255        H  0.40428640  0.13888938  0.52156907     0.12100
H256        H  0.35139823  0.04807729  0.53388282     0.14000
C257        C  0.34779779  0.18589879  0.20636025    -0.06000
C258        C  0.32373215  0.20845929  0.20340292    -0.05900
C259        C  0.32876270  0.24329327  0.20339376    -0.24100
C260        C  0.35796770  0.25633352  0.20627753     0.18100
C261        C  0.38229036  0.23403421  0.21097795     0.15400
C262        C  0.37705563  0.19903988  0.21122215    -0.19100
C263        C  0.41149697  0.24713576  0.21375388    -0.20900
C264        C  0.41667348  0.28192023  0.21019204    -0.13500
C265        C  0.39273663  0.30435201  0.20399659     0.03200
C266        C  0.36331621  0.29122050  0.20306390    -0.25600
H267        H  0.30105336  0.19918597  0.19948040     0.08300
H268        H  0.30980599  0.26005828  0.19989417     0.11900
H269        H  0.39591216  0.18204033  0.21361816     0.11800
H270        H  0.43044808  0.23039565  0.21753923     0.11500
H271        H  0.43947234  0.29119403  0.21104263     0.12100
H272        H  0.34450710  0.30808481  0.19838100     0.14000
C273        C  0.16644064  0.48334537  0.82629059    -0.06000
C274        C  0.19050966  0.48840314  0.85967199    -0.05900
C275        C  0.21775084  0.47218295  0.85195574    -0.24100
C276        C  0.22147842  0.45078311  0.81049907     0.18100
C277        C  0.19660317  0.44273894  0.77984795     0.15400
C278        C  0.16900756  0.45868111  0.78848174    -0.19100
C279        C  0.20053108  0.42138383  0.73823135    -0.20900
C280        C  0.22924863  0.41101443  0.72409921    -0.13500
C281        C  0.25440907  0.42170091  0.75153615     0.03200
C282        C  0.25013514  0.43989155  0.79649227    -0.25600
H283        H  0.18903189  0.50685968  0.88958680     0.08300
H284        H  0.23647646  0.47823809  0.87629706     0.11900
H285        H  0.15060914  0.45441914  0.76260989     0.11800
H286        H  0.18170539  0.41465375  0.71453824     0.11500
H287        H  0.23196212  0.39710020  0.68926318     0.12100
H288        H  0.26940520  0.44813845  0.81808751     0.14000
C289        C  0.50312070  0.57601464  0.74193642    -0.06000
C290        C  0.47844020  0.58527738  0.77161676    -0.05900
C291        C  0.44954260  0.57461822  0.75865353    -0.24100
C292        C  0.44497417  0.55443916  0.71585213     0.18100
C293        C  0.46932163  0.54796253  0.68304327     0.15400
C294        C  0.49820384  0.55902012  0.69614295    -0.19100
C295        C  0.46501847  0.52730722  0.64078535    -0.20900
C296        C  0.43799183  0.50999843  0.63454530    -0.13500
C297        C  0.41457364  0.51383586  0.66950284     0.03200
C298        C  0.41748439  0.53767902  0.70833286    -0.25600
H299        H  0.48183398  0.59779696  0.80748936     0.08300
H300        H  0.43118217  0.57995549  0.78418883     0.11900
H301        H  0.01725546  0.55141660  0.67347696     0.11800
H302        H  0.48334614  0.52226718  0.61502230     0.11500
H303        H  0.43625752  0.49137299  0.60488377     0.12100
H304        H  0.39973626  0.54007812  0.73613288     0.14000
C305        C  0.46713281  0.47378539  0.06624587    -0.06000
C306        C  0.46246513  0.50829996  0.05796972    -0.05900
C307        C  0.47683970  0.52502819  0.01805164    -0.24100
C308        C  0.99644759  0.50763015  0.98609777     0.18100
C309        C  0.50124985  0.47288559  0.99379727     0.15400
C310        C  0.48635255  0.45611467  0.03352990    -0.19100
C311        C  0.52120342  0.45569226  0.96207805    -0.20900
C312        C  0.03662480  0.47290989  0.92356463    -0.13500
C313        C  0.03217064  0.50755312  0.91589920     0.03200
C314        C  0.01170742  0.52459879  0.94713820    -0.25600
H315        H  0.44758381  0.52235979  0.08228965     0.08300
H316        H  0.97287607  0.55168695  0.01252249     0.11900
H317        H  0.49019234  0.42946749  0.03957096     0.11800
H318        H  0.52517201  0.42902522  0.96746810     0.11500
H319        H  0.05222636  0.45918968  0.90012403     0.12100
H320        H  0.00799440  0.55133736  0.94185726     0.14000
C321        C  0.13155110  0.80843513  0.79689794    -0.06000
C322        C  0.10112585  0.80049668  0.78885303    -0.05900
C323        C  0.09115193  0.76711923  0.78791439    -0.24100
C324        C  0.11137113  0.74069496  0.79435853     0.18100
C325        C  0.14222774  0.74818381  0.79955606     0.15400
C326        C  0.15211875  0.78193484  0.80117419    -0.19100
C327        C  0.16257927  0.72174991  0.80449948    -0.20900
C328        C  0.15247840  0.68844462  0.80584614    -0.13500
C329        C  0.12172665  0.68066658  0.80320443     0.03200
C330        C  0.10122182  0.70702106  0.79689613    -0.25600
H331        H  0.08460209  0.82021253  0.78534075     0.08300
H332        H  0.06748181  0.76202880  0.78328469     0.11900
H333        H  0.17559601  0.78751423  0.80724989     0.11800
H334        H  0.18631525  0.72682921  0.80819548     0.11500
H335        H  0.16882418  0.66868765  0.81094548     0.12100
H336        H  0.07751701  0.70137376  0.79446334     0.14000
C337        C  0.08314865  0.00602959  0.83057675    -0.06000
C338        C  0.05945242  0.00128225  0.86505071    -0.05900
C339        C  0.03328614  0.02016203  0.86087327    -0.24100
C340        C  0.03010852  0.04368858  0.82152633     0.18100
C341        C  0.05460860  0.05065718  0.78916380     0.15400
C342        C  0.08123604  0.03221105  0.79452311    -0.19100
C343        C  0.05109304  0.07374569  0.74920285    -0.20900
C344        C  0.02280035  0.08680697  0.73799985    -0.13500
C345        C  0.99769183  0.07736982  0.76707037     0.03200
C346        C  0.00204445  0.05778025  0.81104334    -0.25600
H347        H  0.06044864  0.98159273  0.89352306     0.08300
H348        H  0.01480251  0.01472564  0.88632206     0.11900
H349        H  0.09932904  0.03616449  0.76769534     0.11800
H350        H  0.06969429  0.07968645  0.72426704     0.11500
H351        H  0.52017337  0.10184810  0.70399556     0.12100
H352        H  0.98294266  0.05044370  0.83406342     0.14000
C353        C  0.34433280  0.97567164  0.69918661    -0.06000
C354        C  0.34861629  0.95316678  0.73973295    -0.05900
C355        C  0.32544539  0.93163456  0.75552950    -0.24100
C356        C  0.29771525  0.93219556  0.73073703     0.18100
C357        C  0.29452066  0.95200981  0.68637668     0.15400
C358        C  0.31785572  0.97360737  0.67089379    -0.19100
C359        C  0.26693921  0.95269210  0.66140120    -0.20900
C360        C  0.24186191  0.93753847  0.68356577    -0.13500
C361        C  0.24401564  0.92101823  0.73054445     0.03200
C362        C  0.27236130  0.91638659  0.75236268    -0.25600
H363        H  0.36878828  0.95455421  0.76228294     0.08300
H364        H  0.32849640  0.91641607  0.78927077     0.11900
H365        H  0.31441364  0.99098989  0.63965814     0.11800
H366        H  0.26416321  0.96736653  0.62703757     0.11500
H367        H  0.22014490  0.94160271  0.66651588     0.12100
H368        H  0.27405982  0.90425220  0.78911114     0.14000
C369        C  0.27308305  0.01561285  0.07676754    -0.06000
C370        C  0.27527374  0.98044819  0.07352705    -0.05900
C371        C  0.26191476  0.96318632  0.03350123    -0.24100
C372        C  0.24577905  0.98074631  0.99641882     0.18100
C373        C  0.24327497  0.01610635  0.99943310     0.15400
C374        C  0.25716372  0.03332438  0.03927300    -0.19100
C375        C  0.22668618  0.03357301  0.96281370    -0.20900
C376        C  0.21242674  0.01611623  0.92382676    -0.13500
C377        C  0.21483823  0.98093579  0.92039696     0.03200
C378        C  0.23180461  0.96347274  0.95675657    -0.25600
H379        H  0.28763699  0.96632362  0.10164532     0.08300
H380        H  0.26405763  0.93605429  0.03171570     0.11900
H381        H  0.25525832  0.06048302  0.04141323     0.11800
H382        H  0.22450311  0.06070114  0.96459390     0.11500
H383        H  0.19952722  0.03016353  0.89632589     0.12100
H384        H  0.23368687  0.93630634  0.95482977     0.14000
C385        C  0.02002005  0.98012727  0.42986100    -0.06000
C386        C  0.00344797  0.00879099  0.41651213    -0.05900
C387        C  0.98640957  0.02564685  0.45292924    -0.24100
C388        C  0.98569066  0.01415953  0.50332801     0.18100
C389        C  0.50238478  0.98549759  0.51718139     0.15400
C390        C  0.01946988  0.96882072  0.48054033    -0.19100
C391        C  0.50157185  0.97381823  0.56742479    -0.20900
C392        C  0.48447439  0.99047941  0.60384779    -0.13500
C393        C  0.46807937  0.01928322  0.59078493     0.03200
C394        C  0.46867520  0.03085442  0.54016635    -0.25600
H395        H  0.00327817  0.01786183  0.37778604     0.08300
H396        H  0.97365503  0.04756306  0.44161214     0.11900
H397        H  0.53214046  0.94675635  0.49153931     0.11800
H398        H  0.51426220  0.95182507  0.57861256     0.11500
H399        H  0.48449377  0.98116281  0.64244421     0.12100
H400        H  0.95593203  0.05291775  0.52938338     0.14000
C401        C  0.10388504  0.92044840  0.15749704    -0.06000
C402        C  0.08443322  0.93791858  0.12496493    -0.05900
C403        C  0.08584362  0.93344606  0.07275684    -0.24100
C404        C  0.10700986  0.91172765  0.05185589     0.18100
C405        C  0.12663360  0.89377200  0.08400153     0.15400
C406        C  0.12470778  0.89791310  0.13675759    -0.19100
C407        C  0.14838769  0.87281094  0.06263779    -0.20900
C408        C  0.15150698  0.87093669  0.01002613    -0.13500
C409        C  0.13238631  0.88920124  0.97801550     0.03200
C410        C  0.10960251  0.90876786  0.99920378    -0.25600
H411        H  0.06789819  0.95507319  0.13990810     0.08300
H412        H  0.07068244  0.94742290  0.04867100     0.11900
H413        H  0.13977900  0.88426127  0.16142656     0.11800
H414        H  0.16362519  0.85882999  0.08653841     0.11500
H415        H  0.16931224  0.85579569  0.99428331     0.12100
H416        H  0.09512010  0.92339690  0.97472697     0.14000
C417        C  0.11957554  0.92510374  0.66381815    -0.06000
C418        C  0.09195402  0.91049476  0.65103906    -0.05900
C419        C  0.08529895  0.90307131  0.60067546    -0.24100
C420        C  0.10620361  0.91001327  0.56227551     0.18100
C421        C  0.13395619  0.92491954  0.57457351     0.15400
C422        C  0.14044719  0.93237193  0.62516988    -0.19100
C423        C  0.15471608  0.93217656  0.53602862    -0.20900
C424        C  0.14786402  0.92513270  0.48555835    -0.13500
C425        C  0.12032315  0.91028421  0.47296449     0.03200
C426        C  0.09967557  0.90258870  0.51172156    -0.25600
H427        H  0.07556972  0.90450598  0.68002647     0.08300
H428        H  0.06385569  0.89176996  0.59178681     0.11900
H429        H  0.16193130  0.94348887  0.63441393     0.11800
H430        H  0.17610096  0.94366829  0.54484954     0.11500
H431        H  0.16396679  0.93159001  0.45635220     0.12100
H432        H  0.07811065  0.89169066  0.50247009     0.14000
C433        C  0.39913988  0.98235274  0.18907875    -0.06000
C434        C  0.42198177  0.98335825  0.15272399    -0.05900
C435        C  0.44751104  0.96367207  0.15879591    -0.24100
C436        C  0.45099795  0.94382516  0.20245402     0.18100
C437        C  0.42725336  0.94100854  0.23771364     0.15400
C438        C  0.40106870  0.95983591  0.23015078    -0.19100
C439        C  0.43135600  0.92217489  0.28229768    -0.20900
C440        C  0.45968801  0.90965348  0.29452635    -0.13500
C441        C  0.98409518  0.91531419  0.26187092     0.03200
C442        C  0.47893529  0.93000020  0.21408897    -0.25600
H443        H  0.42084687  0.00094393  0.12130383     0.08300
H444        H  0.46551802  0.96607709  0.13142094     0.07900
H445        H  0.38365182  0.95970596  0.25883281     0.11800
H446        H  0.41334845  0.91952383  0.30960069     0.11500
H447        H  0.96303320  0.89838517  0.33149602     0.12100
H448        H  0.49755363  0.93427589  0.18837132     0.14000
C449        C  0.24068224  0.07110369  0.26924693    -0.06000
C450        C  0.24146979  0.05842577  0.31906068    -0.05900
C451        C  0.21605472  0.04396992  0.34106467    -0.24100
C452        C  0.18945343  0.04185082  0.31345629     0.18100
C453        C  0.18735314  0.05838847  0.26596053     0.15400
C454        C  0.21301494  0.07346364  0.24434428    -0.19100
C455        C  0.16053715  0.05633796  0.23864034    -0.20900
C456        C  0.13730379  0.03537883  0.25569913    -0.13500
C457        C  0.14061220  0.01621262  0.30011904     0.03200
C458        C  0.16609531  0.02072532  0.33012855    -0.25600
H459        H  0.26253183  0.05671270  0.33913025     0.08300
H460        H  0.21790531  0.03203935  0.37790132     0.11900
H461        H  0.21222220  0.08304471  0.20586450     0.11800
H462        H  0.15833182  0.06901054  0.20242455     0.11500
H463        H  0.11785024  0.03184481  0.23190370     0.12100
H464        H  0.16874233  0.00570035  0.36422374     0.14000
C465        C  0.21624291  0.52221438  0.43815041    -0.06000
C466        C  0.20840307  0.53234049  0.48734252    -0.05900
C467        C  0.22444150  0.52125753  0.52939708    -0.24100
C468        C  0.24889329  0.49982730  0.52322691     0.18100
C469        C  0.25662743  0.48862113  0.47405642     0.15400
C470        C  0.24012294  0.49976427  0.43167855    -0.19100
C471        C  0.28096723  0.46682974  0.46825078    -0.20900
C472        C  0.29704423  0.45587089  0.51060272    -0.13500
C473        C  0.28954555  0.46700134  0.55947196     0.03200
C474        C  0.26561182  0.48931802  0.56547359    -0.25600
H475        H  0.19005200  0.54949891  0.49312762     0.08300
H476        H  0.21796847  0.52990323  0.56669015     0.11900
H477        H  0.24658983  0.49220007  0.39385163     0.11800
H478        H  0.28737312  0.45797121  0.43107768     0.11500
H479        H  0.31539202  0.43849936  0.50523139     0.12100
H480        H  0.25939253  0.49754313  0.60311834     0.14000
C481        C  0.12180003  0.59104204  0.97826451    -0.06000
C482        C  0.15186653  0.58713163  0.99256458    -0.05900
C483        C  0.15940668  0.58115985  0.04300553    -0.24100
C484        C  0.13704626  0.57913818  0.08009152     0.18100
C485        C  0.10678072  0.58402262  0.06640603     0.15400
C486        C  0.09935781  0.58985999  0.01562587    -0.19100
C487        C  0.08446248  0.58281138  0.10375026    -0.20900
C488        C  0.09214772  0.57733752  0.15427933    -0.13500
C489        C  0.12208423  0.57205229  0.16784614     0.03200
C490        C  0.14444907  0.57260239  0.13069807    -0.25600
H491        H  0.16956997  0.58772584  0.96451899     0.08300
H492        H  0.18271794  0.57773705  0.05291420     0.11900
H493        H  0.07605876  0.59267990  0.00511939     0.11800
H494        H  0.06116971  0.58655311  0.09399209     0.11500
H495        H  0.07475289  0.57725373  0.18292074     0.12100
H496        H  0.16763984  0.56916516  0.14153394     0.14000
C497        C  0.12583989  0.59837859  0.47746679    -0.06000
C498        C  0.09686442  0.58861356  0.49221223    -0.05900
C499        C  0.09075376  0.58013437  0.54231855    -0.24100
C500        C  0.11364385  0.58066899  0.57827787     0.18100
C501        C  0.14274177  0.59131358  0.56434263     0.15400
C502        C  0.14853093  0.60075771  0.51402861    -0.19100
C503        C  0.16559181  0.59131873  0.60067912    -0.20900
C504        C  0.15957151  0.58086331  0.65036931    -0.13500
C505        C  0.13066419  0.57007045  0.66415123     0.03200
C506        C  0.10785884  0.57020358  0.62780028    -0.25600
H507        H  0.07909283  0.58653450  0.46461813     0.08300
H508        H  0.06830767  0.57213226  0.55262071     0.11900
H509        H  0.17103536  0.60799767  0.50280281     0.11800
H510        H  0.18808773  0.59926512  0.59063097     0.11500
H511        H  0.17742832  0.58129998  0.67795578     0.12100
H512        H  0.08533408  0.56242766  0.63808205     0.14000
C513        C  0.09811710  0.80888521  0.31181632    -0.06000
C514        C  0.07403252  0.78606368  0.31016383    -0.05900
C515        C  0.07913425  0.75141489  0.30690173    -0.24100
C516        C  0.10843847  0.73888608  0.30551448     0.18100
C517        C  0.13284767  0.76153155  0.30594863     0.15400
C518        C  0.12754856  0.79633163  0.30884826    -0.19100
C519        C  0.16215410  0.74891876  0.30488074    -0.20900
C520        C  0.16725520  0.71414845  0.30529892    -0.13500
C521        C  0.14315138  0.69136339  0.30656411     0.03200
C522        C  0.11372590  0.70406674  0.30539009    -0.25600
H523        H  0.05120643  0.79494419  0.31233579     0.08300
H524        H  0.06014724  0.73437104  0.30652124     0.11900
H525        H  0.14640487  0.81354527  0.31005113     0.11800
H526        H  0.18115063  0.76594402  0.30506110     0.11500
H527        H  0.19006100  0.70512055  0.30630961     0.12100
H528        H  0.09482930  0.68687489  0.30621820     0.14000
C529        C  0.25150328  0.57361147  0.24894573    -0.06000
C530        C  0.27742910  0.58438842  0.27431008    -0.05900
C531        C  0.30565797  0.57224637  0.26014870    -0.24100
C532        C  0.30836120  0.54882067  0.22075080     0.18100
C533        C  0.28276696  0.54045028  0.19202041     0.15400
C534        C  0.25471496  0.55348156  0.20556173    -0.19100
C535        C  0.28501189  0.51649451  0.15346054    -0.20900
C536        C  0.31145352  0.49844995  0.14690078    -0.13500
C537        C  0.33643180  0.50479405  0.17748797     0.03200
C538        C  0.33535635  0.53130598  0.21260470    -0.25600
H539        H  0.27567529  0.59989302  0.30777262     0.08300
H540        H  0.32501006  0.57926402  0.28236888     0.11900
H541        H  0.23496699  0.54515329  0.18534748     0.11800
H542        H  0.26566120  0.50989526  0.13092269     0.11500
H543        H  0.31184938  0.47798869  0.11996319     0.12100
H544        H  0.35438708  0.53584721  0.23702077     0.14000
C545        C  0.50188044  0.42423693  0.25749780    -0.06000
C546        C  0.02788422  0.41253258  0.23342831    -0.05900
C547        C  0.05619049  0.42372143  0.24893184    -0.24100
C548        C  0.05888673  0.44695004  0.28855257     0.18100
C549        C  0.03303253  0.45619168  0.31607088     0.15400
C550        C  0.50480857  0.44439664  0.30083723    -0.19100
C551        C  0.03539938  0.47980619  0.35506410    -0.20900
C552        C  0.06229610  0.49698227  0.36276250    -0.13500
C553        C  0.08745495  0.49021836  0.33261708     0.03200
C554        C  0.08624352  0.46363113  0.29775903    -0.25600
H555        H  0.02624634  0.39705546  0.19991909     0.08300
H556        H  0.07572668  0.41610012  0.22761002     0.11900
H557        H  0.48490490  0.45344633  0.31986216     0.11800
H558        H  0.01588179  0.48697962  0.37681164     0.11500
H559        H  0.06282241  0.51751200  0.38959296     0.12100
H560        H  0.10543890  0.45873938  0.27378374     0.14000
O561        O  0.70199449  0.55497847  0.26197067    -0.82500
C562        C  0.63321584  0.60079716  0.42336106     0.96800
O563        O  0.65695056  0.61570826  0.40893305    -0.71700
O564        O  0.69721644  0.57030922  0.39937063    -0.75300
Al565      Al  0.68411606  0.60375258  0.35506330     1.49000
C566        C  0.70172593  0.53929854  0.39484581     0.92100
O567        O  0.63802506  0.51039314  0.32846195    -0.81500
O568        O  0.62049339  0.59142253  0.25108562    -0.75000
Al569      Al  0.66913613  0.53705265  0.29780460     1.90100
O570        O  0.60178254  0.54600444  0.31913026    -0.74100
O571        O  0.62586339  0.63622118  0.32361560    -0.74000
O572        O  0.61637475  0.58620178  0.39208527    -0.79600
O573        O  0.67398997  0.64220835  0.31439413    -0.77800
O574        O  0.65796666  0.57634754  0.32449454    -1.13900
O575        O  0.71728359  0.59601257  0.31008538    -0.73100
C576        C  0.72173361  0.57598970  0.27397411     0.97600
C577        C  0.61053888  0.51664518  0.32733978     0.94000
Al578      Al  0.61962226  0.58888024  0.32171063     1.55600
O579        O  0.69395889  0.52375035  0.35508948    -0.77800
C580        C  0.64809629  0.65472854  0.31421322     0.98100
C581        C  0.63015430  0.56918162  0.22128036     0.93000
O582        O  0.64644933  0.54490881  0.23642664    -0.83100
O583        O  0.53421311  0.93292818  0.26008283    -0.82500
C584        C  0.61159751  0.90550219  0.41956971     0.96800
O585        O  0.58869742  0.88780245  0.40984358    -0.71700
O586        O  0.54663733  0.93222578  0.40348934    -0.75300
Al587      Al  0.55769435  0.89642655  0.36143384     1.49000
C588        C  0.53658236  0.96065536  0.39117756     0.92100
O589        O  0.59375829  0.98937280  0.31428101    -0.81500
O590        O  0.61416544  0.90565473  0.24343470    -0.75000
Al591      Al  0.56486744  0.95811986  0.29016681     1.90100
O592        O  0.63293242  0.95776842  0.30247158    -0.74100
O593        O  0.61504141  0.86507163  0.32329083    -0.74000
O594        O  0.62597329  0.91999846  0.38425109    -0.79600
O595        O  0.56663192  0.85686499  0.32355773    -0.77800
O596        O  0.58034519  0.92269324  0.32181507    -1.13900
O597        O  0.52110425  0.90068704  0.32345959    -0.73100
C598        C  0.51496377  0.91499089  0.28202199     0.97600
C599        C  0.62145475  0.98641073  0.30762405     0.94000
Al600      Al  0.61895560  0.91291131  0.31412699     1.55600
O601        O  0.53981677  0.97181347  0.34637666    -0.77800
C602        C  0.59286116  0.84545243  0.31923971     0.98100
C603        C  0.60161054  0.92571156  0.21275958     0.93000
O604        O  0.58644539  0.95044539  0.22859567    -0.83100
O605        O  0.65249652  0.94468610  0.72707541    -0.82500
C606        C  0.63859574  0.89176150  0.92334706     0.96800
O607        O  0.61754524  0.89742881  0.89274109    -0.71700
O608        O  0.60382289  0.95255669  0.84851399    -0.75300
Al609      Al  0.61633842  0.91043665  0.82322717     1.49000
C610        C  0.60704324  0.98034869  0.82678035     0.92100
O611        O  0.67974641  0.97693452  0.85289377    -0.81500
O612        O  0.70698622  0.89382918  0.78316585    -0.75000
Al613      Al  0.66562423  0.96008569  0.79028851     1.90100
O614        O  0.70565788  0.93134509  0.87295374    -0.74100
O615        O  0.66594026  0.85196611  0.82272246    -0.74000
O616        O  0.66530070  0.89025365  0.90849708    -0.79600
O617        O  0.62065642  0.86618517  0.80094943    -0.77800
O618        O  0.65500512  0.92102053  0.81943514    -1.13900
O619        O  0.60964900  0.92190323  0.75262500    -0.73100
C620        C  0.62750534  0.93108632  0.71734027     0.97600
C621        C  0.69921407  0.96219792  0.87994183     0.94000
Al622      Al  0.68349292  0.89406159  0.84441165     1.55600
O623        O  0.62930332  0.98490870  0.79862592    -0.77800
C624        C  0.64031440  0.84409426  0.80633027     0.98100
C625        C  0.71711411  0.92030529  0.76283386     0.93000
O626        O  0.70480269  0.94804309  0.77102294    -0.83100
O627        O  0.59769300  0.54812452  0.72589647    -0.82500
C628        C  0.61372855  0.59253207  0.92416697     0.96800
O629        O  0.63408279  0.59106881  0.89118666    -0.71700
O630        O  0.64531421  0.53563505  0.84746666    -0.75300
Al631      Al  0.63440459  0.57825956  0.82219935     1.49000
C632        C  0.64207134  0.50852765  0.82431751     0.92100
O633        O  0.56861510  0.51207080  0.84938846    -0.81500
O634        O  0.54455539  0.59952366  0.78734475    -0.75000
Al635      Al  0.58384159  0.53093425  0.78781049     1.90100
O636        O  0.54419154  0.55788572  0.87194845    -0.74100
O637        O  0.58724087  0.63748931  0.83046376    -0.74000
O638        O  0.58661537  0.59328204  0.91159467    -0.79600
O639        O  0.63053818  0.62260025  0.79941253    -0.77800
O640        O  0.59550346  0.56850345  0.81920307    -1.13900
O641        O  0.64146551  0.56719626  0.75216387    -0.73100
C642        C  0.62311611  0.56094662  0.71677903     0.97600
C643        C  0.54928296  0.52660053  0.87692896     0.94000
Al644      Al  0.56807616  0.59500627  0.84767105     1.55600
O645        O  0.61987395  0.50486273  0.79572065    -0.77800
C646        C  0.61212598  0.64510582  0.81041576     0.98100
C647        C  0.53289451  0.57440115  0.76583851     0.93000
O648        O  0.54504396  0.54596091  0.76906224    -0.83100
O649        O  0.78745593  0.04909777  0.25016524    -0.82500
C650        C  0.85971354  0.09351072  0.09333204     0.96800
O651        O  0.83555626  0.10845824  0.10503102    -0.71700
O652        O  0.79261574  0.06501209  0.11318292    -0.75300
Al653      Al  0.80672199  0.09811157  0.15766885     1.49000
C654        C  0.78785405  0.03401859  0.11835122     0.92100
O655        O  0.85027286  0.00506450  0.18402719    -0.81500
O656        O  0.86556528  0.08478342  0.26884722    -0.75000
Al657      Al  0.81966464  0.03079216  0.21510999     1.90100
O658        O  0.88696978  0.03873951  0.20293663    -0.74100
O659        O  0.86507935  0.13015605  0.19386184    -0.74000
O660        O  0.87587701  0.07991227  0.12695524    -0.79600
O661        O  0.81694135  0.13672943  0.19722139    -0.77800
O662        O  0.83175166  0.07036578  0.19014997    -1.13900
O663        O  0.77306814  0.09144312  0.20286992    -0.73100
C664        C  0.76880261  0.07154364  0.23973172     0.97600
C665        C  0.87762006  0.01002611  0.19112355     0.94000
Al666      Al  0.87002057  0.08247042  0.19748025     1.55600
O667        O  0.79565545  0.01873975  0.15816132    -0.77800
C668        C  0.84289733  0.14905511  0.19973331     0.98100
C669        C  0.85529818  0.06101835  0.29628359     0.93000
O670        O  0.84150194  0.03619829  0.27697238    -0.83100
O671        O  0.95432330  0.44563050  0.23788958    -0.82500
C672        C  0.88485255  0.39452809  0.08346819     0.96800
O673        O  0.90816216  0.37978146  0.09963150    -0.71700
O674        O  0.95051586  0.42452671  0.10828129    -0.75300
Al675      Al  0.93513199  0.39177498  0.15343383     1.49000
C676        C  0.95211174  0.45617607  0.10884888     0.92100
O677        O  0.88710107  0.48559461  0.17651258    -0.81500
O678        O  0.87382318  0.40527025  0.25989013    -0.75000
Al679      Al  0.91955240  0.46054073  0.20481809     1.90100
O680        O  0.85189568  0.44927197  0.19060451    -0.74100
O681        O  0.87619104  0.35948573  0.18478082    -0.74000
O682        O  0.86719709  0.40927603  0.11403549    -0.79600
O683        O  0.92397226  0.35361914  0.19473564    -0.77800
O684        O  0.90889261  0.42000955  0.18194293    -1.13900
O685        O  0.96724045  0.39931134  0.19980148    -0.73100
C686        C  0.97260455  0.42218055  0.23135290     0.97600
C687        C  0.85985682  0.47880344  0.18108654     0.94000
Al688      Al  0.87076228  0.40698324  0.18687829     1.55600
O689        O  0.94123260  0.47282237  0.14510141    -0.77800
C690        C  0.89806414  0.34098360  0.19486889     0.98100
C691        C  0.88509768  0.42839731  0.28748418     0.93000
O692        O  0.89933500  0.45313511  0.26798118    -0.83100
O693        O  0.85613273  0.45981645  0.76602403    -0.82500
C694        C  0.87627082  0.39536063  0.58610558     0.96800
O695        O  0.89187226  0.41400326  0.61500223    -0.71700
O696        O  0.90292897  0.45801361  0.68842588    -0.75300
Al697      Al  0.88747726  0.41386231  0.68776069     1.49000
C698        C  0.89288456  0.48605599  0.67551406     0.92100
O699        O  0.81102354  0.47054931  0.64229193    -0.81500
O700        O  0.79064964  0.39972768  0.69407719    -0.75000
Al701      Al  0.83492762  0.46261899  0.70221910     1.90100
O702        O  0.81146277  0.42184486  0.60289955    -0.74100
O703        O  0.83672065  0.35666221  0.69941902    -0.74000
O704        O  0.85450556  0.37839591  0.60372683    -0.79600
O705        O  0.88439473  0.36634303  0.68976855    -0.77800
O706        O  0.84882378  0.42301480  0.68120432    -1.13900
O707        O  0.88367350  0.41374311  0.76004210    -0.73100
C708        C  0.87076312  0.43598465  0.78678592     0.97600
C709        C  0.80497737  0.45262380  0.60399992     0.94000
Al710      Al  0.82524347  0.39188121  0.65286755     1.55600
O711        O  0.86522477  0.48992184  0.67023336    -0.77800
C712        C  0.86346945  0.34649887  0.70130784     0.98100
C713        C  0.78438811  0.42098091  0.72765066     0.93000
O714        O  0.80242168  0.44416238  0.73806809    -0.83100
O715        O  0.89309677  0.04449162  0.78523346    -0.82500
C716        C  0.88121542  0.09413937  0.58986447     0.96800
O717        O  0.86536200  0.07544443  0.61826318    -0.71700
O718        O  0.85110930  0.03427631  0.69348245    -0.75300
Al719      Al  0.86448195  0.07951919  0.69015058     1.49000
C720        C  0.86343994  0.00605346  0.69552672     0.92100
O721        O  0.94517916  0.02471645  0.67258093    -0.81500
O722        O  0.96249805  0.09640972  0.70527446    -0.75000
Al723      Al  0.91793990  0.03677502  0.72697575     1.90100
O724        O  0.94319693  0.06778982  0.61936120    -0.74100
O725        O  0.91458256  0.13872730  0.70239168    -0.74000
O726        O  0.90134945  0.11261455  0.60858213    -0.79600
O727        O  0.86732368  0.12738749  0.68746929    -0.77800
O728        O  0.90369207  0.07224901  0.69358501    -1.13900
O729        O  0.86114689  0.08377094  0.76111920    -0.73100
C730        C  0.87349927  0.06651022  0.79554831     0.97600
C731        C  0.95114398  0.03808258  0.62972484     0.94000
Al732      Al  0.92829509  0.10146414  0.66217544     1.55600
O733        O  0.89129091  0.00410168  0.69983294    -0.77800
C734        C  0.88746389  0.14804684  0.70034966     0.98100
C735        C  0.96725673  0.07970776  0.74497326     0.93000
O736        O  0.94707731  0.06116185  0.76263566    -0.83100
C737        C  0.87142399  0.31105423  0.71293031    -0.06000
C738        C  0.90173736  0.30270093  0.72033500    -0.05900
C739        C  0.91090245  0.26919380  0.72290321    -0.24100
C740        C  0.88997253  0.24314873  0.71809904     0.18100
C741        C  0.85927279  0.25117302  0.71300835     0.15400
C742        C  0.85013800  0.28503764  0.71070071    -0.19100
C743        C  0.83831729  0.22516830  0.70836521    -0.20900
C744        C  0.84770509  0.19175985  0.70668975    -0.13500
C745        C  0.87830371  0.18342347  0.70937304     0.03200
C746        C  0.89933126  0.20933739  0.71643438    -0.25600
H747        H  0.91870179  0.32219421  0.72248286     0.08300
H748        H  0.93447659  0.26369546  0.72716151     0.11900
H749        H  0.82679023  0.29104063  0.70468191     0.11800
H750        H  0.81471238  0.23067839  0.70473420     0.11500
H751        H  0.83083158  0.17241111  0.70171607     0.12100
H752        H  0.92292166  0.20337770  0.71865540     0.14000
C753        C  0.87998494  0.39530326  0.02773457    -0.06000
C754        C  0.89285672  0.37009227  0.99758708    -0.05900
C755        C  0.89344058  0.37296354  0.94481964    -0.24100
C756        C  0.88154841  0.40140338  0.92075810     0.18100
C757        C  0.86798135  0.42671827  0.95031377     0.15400
C758        C  0.86698647  0.42337881  0.00363383    -0.19100
C759        C  0.85630710  0.45524923  0.92597771    -0.20900
C760        C  0.85795971  0.45859427  0.87314860    -0.13500
C761        C  0.87142386  0.43356737  0.84325015     0.03200
C762        C  0.88321744  0.40497265  0.86768006    -0.25600
H763        H  0.90325451  0.34838144  0.01504152     0.08300
H764        H  0.90387125  0.35324486  0.92287650     0.11900
H765        H  0.85754945  0.44334928  0.02636296     0.11800
H766        H  0.84583124  0.47499551  0.94779095     0.11500
H767        H  0.84835621  0.48073972  0.85562946     0.12100
H768        H  0.89334475  0.38521568  0.84538512     0.14000
C769        C  0.88310222  0.42706541  0.34378040    -0.06000
C770        C  0.89084682  0.45592017  0.37174220    -0.05900
C771        C  0.89268056  0.45488363  0.42445535    -0.24100
C772        C  0.88680845  0.42494400  0.45080830     0.18100
C773        C  0.87831023  0.39584070  0.42357840     0.15400
C774        C  0.87643878  0.39705231  0.37020586    -0.19100
C775        C  0.87184412  0.36609444  0.45034514    -0.20900
C776        C  0.87300785  0.36548779  0.50330791    -0.13500
C777        C  0.88125440  0.39436188  0.53068098     0.03200
C778        C  0.88865455  0.42390601  0.50401007    -0.25600
H779        H  0.89603315  0.47946182  0.35271136     0.08300
H780        H  0.89892351  0.47752923  0.44459858     0.11900
H781        H  0.87060296  0.37455593  0.34933872     0.11800
H782        H  0.86520001  0.34351316  0.43041939     0.11500
H783        H  0.86665769  0.34257697  0.52310395     0.12100
H784        H  0.89414848  0.44657856  0.52475802     0.14000
C785        C  0.86814166  0.08995765  0.03943478    -0.06000
C786        C  0.89492862  0.07374388  0.02625646    -0.05900
C787        C  0.90107854  0.06571481  0.97594448    -0.24100
C788        C  0.88052379  0.07364141  0.93782716     0.18100
C789        C  0.85384858  0.09068900  0.95032182     0.15400
C790        C  0.84786153  0.09882967  0.00098933    -0.19100
C791        C  0.83344688  0.09886045  0.91198050    -0.20900
C792        C  0.83954521  0.09044226  0.86169077    -0.13500
C793        C  0.86591606  0.07325634  0.84899896     0.03200
C794        C  0.88624515  0.06478694  0.88743274    -0.25600
H795        H  0.91083089  0.06637204  0.05506936     0.08300
H796        H  0.92169760  0.05278434  0.96697194     0.11900
H797        H  0.82696147  0.11099326  0.01059652     0.11800
H798        H  0.81288115  0.11192962  0.92082706     0.11500
H799        H  0.82365335  0.09745247  0.83265564     0.12100
H800        H  0.90690043  0.05204252  0.87798263     0.14000
C801        C  0.85871780  0.06200158  0.35182634    -0.06000
C802        C  0.84506384  0.03700127  0.38210661    -0.05900
C803        C  0.84629948  0.03869878  0.43472561    -0.24100
C804        C  0.86121492  0.06539865  0.45812251     0.18100
C805        C  0.87560237  0.09030185  0.42812790     0.15400
C806        C  0.87428145  0.08844989  0.37518084    -0.19100
C807        C  0.89088148  0.11674138  0.45164921    -0.20900
C808        C  0.89192489  0.11845866  0.50434805    -0.13500
C809        C  0.87750972  0.09390896  0.53445762     0.03200
C810        C  0.86208319  0.06748581  0.51101474    -0.25600
H811        H  0.83291634  0.01631719  0.36515615     0.08300
H812        H  0.83532699  0.01927126  0.45712439     0.11900
H813        H  0.88499415  0.10780915  0.35228220     0.11800
H814        H  0.90216734  0.13597040  0.42932618     0.11500
H815        H  0.90428655  0.13888949  0.52156912     0.12100
H816        H  0.85139840  0.04807702  0.53388289     0.14000
C817        C  0.84779780  0.18589881  0.20636035    -0.06000
C818        C  0.82373224  0.20845933  0.20340304    -0.05900
C819        C  0.82876263  0.24329337  0.20339384    -0.24100
C820        C  0.85796775  0.25633353  0.20627762     0.18100
C821        C  0.88229037  0.23403423  0.21097802     0.15400
C822        C  0.87705564  0.19903991  0.21122223    -0.19100
C823        C  0.91149712  0.24713566  0.21375394    -0.20900
C824        C  0.91667347  0.28192021  0.21019208    -0.13500
C825        C  0.89273667  0.30435199  0.20399667     0.03200
C826        C  0.86331609  0.29122064  0.20306395    -0.25600
H827        H  0.80105329  0.19918594  0.19948051     0.08300
H828        H  0.80980618  0.26005814  0.19989431     0.11900
H829        H  0.89591221  0.18204029  0.21361824     0.11800
H830        H  0.93044795  0.23039579  0.21753920     0.11500
H831        H  0.93947246  0.29119405  0.21104265     0.12100
H832        H  0.84450736  0.30808460  0.19838117     0.14000
C833        C  0.66644062  0.48334543  0.82629057    -0.06000
C834        C  0.69050966  0.48840318  0.85967188    -0.05900
C835        C  0.71775081  0.47218303  0.85195574    -0.24100
C836        C  0.72147843  0.45078316  0.81049916     0.18100
C837        C  0.69660316  0.44273895  0.77984801     0.15400
C838        C  0.66900764  0.45868115  0.78848188    -0.19100
C839        C  0.70053118  0.42138385  0.73823161    -0.20900
C840        C  0.72924863  0.41101431  0.72409917    -0.13500
C841        C  0.75440907  0.42170089  0.75153630     0.03200
C842        C  0.75013509  0.43989155  0.79649232    -0.25600
H843        H  0.68903186  0.50685990  0.88958689     0.08300
H844        H  0.73647646  0.47823822  0.87629710     0.11900
H845        H  0.65060900  0.45441910  0.76260975     0.11800
H846        H  0.68170519  0.41465365  0.71453816     0.11500
H847        H  0.73196209  0.39710025  0.68926367     0.12100
H848        H  0.76940525  0.44813852  0.81808767     0.14000
C849        C  0.00312072  0.57601465  0.74193658    -0.06000
C850        C  0.97844025  0.58527726  0.77161716    -0.05900
C851        C  0.94954275  0.57461802  0.75865381    -0.24100
C852        C  0.94497417  0.55443912  0.71585245     0.18100
C853        C  0.96932160  0.54796263  0.68304343     0.15400
C854        C  0.99820378  0.55902026  0.69614305    -0.19100
C855        C  0.96501836  0.52730741  0.64078546    -0.20900
C856        C  0.93799176  0.50999866  0.63454553    -0.13500
C857        C  0.91457359  0.51383591  0.66950307     0.03200
C858        C  0.91748451  0.53767896  0.70833303    -0.25600
H859        H  0.98183405  0.59779669  0.80748970     0.08300
H860        H  0.93118206  0.57995526  0.78418963     0.11900
H861        H  0.51725550  0.55141638  0.67347705     0.11800
H862        H  0.98334603  0.52226746  0.61502224     0.11500
H863        H  0.93625740  0.49137311  0.60488362     0.12100
H864        H  0.89973612  0.54007801  0.73613363     0.14000
C865        C  0.96713285  0.47378537  0.06624600    -0.06000
C866        C  0.96246508  0.50830000  0.05796986    -0.05900
C867        C  0.97683969  0.52502810  0.01805171    -0.24100
C868        C  0.49644758  0.50763011  0.98609768     0.18100
C869        C  0.00124994  0.47288560  0.99379742     0.15400
C870        C  0.98635260  0.45611495  0.03353002    -0.19100
C871        C  0.02120351  0.45569256  0.96207820    -0.20900
C872        C  0.53662459  0.47290996  0.92356462    -0.13500
C873        C  0.53217061  0.50755310  0.91589913     0.03200
C874        C  0.51170740  0.52459890  0.94713815    -0.25600
H875        H  0.94758383  0.52235969  0.08228958     0.08300
H876        H  0.47287615  0.55168684  0.01252252     0.11900
H877        H  0.99019253  0.42946712  0.03957127     0.11800
H878        H  0.02517225  0.42902483  0.96746847     0.11500
H879        H  0.55222639  0.45918948  0.90012356     0.12100
H880        H  0.50799448  0.55133722  0.94185731     0.14000
C881        C  0.63155116  0.80843514  0.79689791    -0.06000
C882        C  0.60112579  0.80049681  0.78885297    -0.05900
C883        C  0.59115209  0.76711928  0.78791436    -0.24100
C884        C  0.61137112  0.74069498  0.79435846     0.18100
C885        C  0.64222779  0.74818380  0.79955598     0.15400
C886        C  0.65211852  0.78193478  0.80117405    -0.19100
C887        C  0.66257907  0.72174984  0.80449933    -0.20900
C888        C  0.65247845  0.68844456  0.80584606    -0.13500
C889        C  0.62172663  0.68066658  0.80320439     0.03200
C890        C  0.60122189  0.70702108  0.79689611    -0.25600
H891        H  0.58460229  0.82021238  0.78534077     0.08300
H892        H  0.56748164  0.76202879  0.78328462     0.11900
H893        H  0.67559646  0.78751431  0.80724991     0.11800
H894        H  0.68631563  0.72682925  0.80819538     0.11500
H895        H  0.66882410  0.66868771  0.81094535     0.12100
H896        H  0.57751694  0.70137378  0.79446333     0.14000
C897        C  0.58314852  0.00602955  0.83057684    -0.06000
C898        C  0.55945229  0.00128209  0.86505089    -0.05900
C899        C  0.53328598  0.02016194  0.86087333    -0.24100
C900        C  0.53010839  0.04368852  0.82152642     0.18100
C901        C  0.55460848  0.05065717  0.78916391     0.15400
C902        C  0.58123586  0.03221101  0.79452331    -0.19100
C903        C  0.55109295  0.07374573  0.74920301    -0.20900
C904        C  0.52280026  0.08680705  0.73799998    -0.13500
C905        C  0.49769172  0.07736984  0.76707047     0.03200
C906        C  0.50204441  0.05778025  0.81104330    -0.25600
H907        H  0.56044850  0.98159275  0.89352294     0.08300
H908        H  0.51480235  0.01472554  0.88632209     0.11900
H909        H  0.59932900  0.03616451  0.76769537     0.11800
H910        H  0.56969420  0.07968652  0.72426725     0.11500
H911        H  0.02017346  0.10184799  0.70399530     0.12100
H912        H  0.48294240  0.05044359  0.83406359     0.14000
C913        C  0.84433280  0.97567165  0.69918661    -0.06000
C914        C  0.84861616  0.95316676  0.73973282    -0.05900
C915        C  0.82544535  0.93163457  0.75552950    -0.24100
C916        C  0.79771521  0.93219562  0.73073703     0.18100
C917        C  0.79452065  0.95200990  0.68637670     0.15400
C918        C  0.81785571  0.97360743  0.67089378    -0.19100
C919        C  0.76693920  0.95269220  0.66140135    -0.20900
C920        C  0.74186189  0.93753864  0.68356582    -0.13500
C921        C  0.74401559  0.92101836  0.73054447     0.03200
C922        C  0.77236125  0.91638672  0.75236257    -0.25600
H923        H  0.86878844  0.95455418  0.76228310     0.08300
H924        H  0.82849635  0.91641610  0.78927069     0.11900
H925        H  0.81441365  0.99098995  0.63965817     0.11800
H926        H  0.76416319  0.96736675  0.62703748     0.11500
H927        H  0.72014486  0.94160292  0.66651594     0.12100
H928        H  0.77405977  0.90425220  0.78911132     0.14000
C929        C  0.77308311  0.01561295  0.07676739    -0.06000
C930        C  0.77527385  0.98044832  0.07352678    -0.05900
C931        C  0.76191493  0.96318633  0.03350098    -0.24100
C932        C  0.74577915  0.98074641  0.99641866     0.18100
C933        C  0.74327501  0.01610646  0.99943298     0.15400
C934        C  0.75716375  0.03332446  0.03927288    -0.19100
C935        C  0.72668618  0.03357304  0.96281360    -0.20900
C936        C  0.71242671  0.01611633  0.92382669    -0.13500
C937        C  0.71483823  0.98093588  0.92039689     0.03200
C938        C  0.73180467  0.96347296  0.95675645    -0.25600
H939        H  0.78763720  0.96632371  0.10164514     0.08300
H940        H  0.76405783  0.93605458  0.03171542     0.11900
H941        H  0.75525829  0.06048315  0.04141317     0.11800
H942        H  0.72450307  0.06070133  0.96459384     0.11500
H943        H  0.69952717  0.03016358  0.89632589     0.12100
H944        H  0.73368698  0.93630627  0.95482960     0.14000
C945        C  0.52002004  0.98012723  0.42986111    -0.06000
C946        C  0.50344799  0.00879097  0.41651224    -0.05900
C947        C  0.48640958  0.02564689  0.45292931    -0.24100
C948        C  0.48569065  0.01415956  0.50332808     0.18100
C949        C  0.00238482  0.98549758  0.51718129     0.15400
C950        C  0.51946982  0.96882072  0.48054044    -0.19100
C951        C  0.00157198  0.97381813  0.56742475    -0.20900
C952        C  0.98447447  0.99047940  0.60384765    -0.13500
C953        C  0.96807941  0.01928317  0.59078487     0.03200
C954        C  0.96867524  0.03085430  0.54016632    -0.25600
H955        H  0.50327820  0.01786181  0.37778611     0.08300
H956        H  0.47365510  0.04756304  0.44161221     0.11900
H957        H  0.03214050  0.94675644  0.49153915     0.11800
H958        H  0.01426223  0.95182523  0.57861238     0.11500
H959        H  0.98449388  0.98116276  0.64244428     0.12100
H960        H  0.45593211  0.05291772  0.52938347     0.14000
C961        C  0.60388494  0.92044825  0.15749711    -0.06000
C962        C  0.58443315  0.93791827  0.12496498    -0.05900
C963        C  0.58584337  0.93344594  0.07275678    -0.24100
C964        C  0.60700979  0.91172749  0.05185600     0.18100
C965        C  0.62663356  0.89377193  0.08400158     0.15400
C966        C  0.62470785  0.89791291  0.13675785    -0.19100
C967        C  0.64838784  0.87281082  0.06263807    -0.20900
C968        C  0.65150707  0.87093665  0.01002614    -0.13500
C969        C  0.63238632  0.88920120  0.97801561     0.03200
C970        C  0.60960238  0.90876781  0.99920376    -0.25600
H971        H  0.56789786  0.95507304  0.13990833     0.08300
H972        H  0.57068242  0.94742248  0.04867140     0.11900
H973        H  0.63977883  0.88426140  0.16142637     0.11800
H974        H  0.66362506  0.85883019  0.08653820     0.11500
H975        H  0.66931222  0.85579583  0.99428347     0.12100
H976        H  0.59512011  0.92339663  0.97472724     0.14000
C977        C  0.61957543  0.92510369  0.66381826    -0.06000
C978        C  0.59195400  0.91049457  0.65103919    -0.05900
C979        C  0.58529890  0.90307103  0.60067564    -0.24100
C980        C  0.60620355  0.91001307  0.56227566     0.18100
C981        C  0.63395605  0.92491949  0.57457362     0.15400
C982        C  0.64044709  0.93237199  0.62516998    -0.19100
C983        C  0.65471605  0.93217665  0.53602877    -0.20900
C984        C  0.64786383  0.92513262  0.48555854    -0.13500
C985        C  0.62032305  0.91028404  0.47296464     0.03200
C986        C  0.59967545  0.90258841  0.51172171    -0.25600
H987        H  0.57556966  0.90450570  0.68002672     0.08300
H988        H  0.56385571  0.89176958  0.59178705     0.11900
H989        H  0.66193102  0.94348897  0.63441395     0.11800
H990        H  0.67610053  0.94366830  0.54484951     0.11500
H991        H  0.66396668  0.93159006  0.45635216     0.12100
H992        H  0.57811070  0.89169034  0.50247032     0.14000
C993        C  0.89913990  0.98235277  0.18907861    -0.06000
C994        C  0.92198176  0.98335816  0.15272401    -0.05900
C995        C  0.94751113  0.96367214  0.15879565    -0.24100
C996        C  0.95099797  0.94382527  0.20245398     0.18100
C997        C  0.92725343  0.94100868  0.23771355     0.15400
C998        C  0.90106859  0.95983600  0.23015098    -0.19100
C999        C  0.93135589  0.92217504  0.28229795    -0.20900
C1000       C  0.95968809  0.90965370  0.29452612    -0.13500
C1001       C  0.48409512  0.91531405  0.26187102     0.03200
C1002       C  0.97893535  0.93000034  0.21408883    -0.25600
H1003       H  0.92084683  0.00094406  0.12130331     0.08300
H1004       H  0.96551789  0.96607713  0.13142096     0.07900
H1005       H  0.88365213  0.95970609  0.25883233     0.11800
H1006       H  0.91334888  0.91952408  0.30960020     0.11500
H1007       H  0.46303307  0.89838507  0.33149582     0.12100
H1008       H  0.99755368  0.93427600  0.18837119     0.14000
C1009       C  0.74068222  0.07110364  0.26924692    -0.06000
C1010       C  0.74146976  0.05842571  0.31906063    -0.05900
C1011       C  0.71605474  0.04396977  0.34106479    -0.24100
C1012       C  0.68945344  0.04185070  0.31345627     0.18100
C1013       C  0.68735312  0.05838834  0.26596053     0.15400
C1014       C  0.71301492  0.07346356  0.24434431    -0.19100
C1015       C  0.66053714  0.05633781  0.23864034    -0.20900
C1016       C  0.63730369  0.03537865  0.25569899    -0.13500
C1017       C  0.64061221  0.01621247  0.30011902     0.03200
C1018       C  0.66609532  0.02072511  0.33012867    -0.25600
H1019       H  0.76253188  0.05671266  0.33913026     0.08300
H1020       H  0.71790533  0.03203933  0.37790106     0.11900
H1021       H  0.71222216  0.08304465  0.20586445     0.11800
H1022       H  0.65833180  0.06901042  0.20242448     0.11500
H1023       H  0.61785040  0.03184467  0.23190387     0.12100
H1024       H  0.66874234  0.00570033  0.36422349     0.14000
C1025       C  0.71624291  0.52221447  0.43815048    -0.06000
C1026       C  0.70840310  0.53234079  0.48734261    -0.05900
C1027       C  0.72444163  0.52125772  0.52939697    -0.24100
C1028       C  0.74889328  0.49982739  0.52322702     0.18100
C1029       C  0.75662734  0.48862104  0.47405651     0.15400
C1030       C  0.74012281  0.49976424  0.43167877    -0.19100
C1031       C  0.78096697  0.46682956  0.46825116    -0.20900
C1032       C  0.79704411  0.45587054  0.51060281    -0.13500
C1033       C  0.78954545  0.46700125  0.55947208     0.03200
C1034       C  0.76561188  0.48931802  0.56547344    -0.25600
H1035       H  0.69005230  0.54949914  0.49312762     0.08300
H1036       H  0.71796861  0.52990364  0.56669050     0.11900
H1037       H  0.74658969  0.49219986  0.39385161     0.11800
H1038       H  0.78737288  0.45797076  0.43107744     0.11500
H1039       H  0.81539155  0.43849914  0.50523159     0.12100
H1040       H  0.75939256  0.49754339  0.60311875     0.14000
C1041       C  0.62180000  0.59104198  0.97826452    -0.06000
C1042       C  0.65186649  0.58713165  0.99256457    -0.05900
C1043       C  0.65940669  0.58115981  0.04300553    -0.24100
C1044       C  0.63704622  0.57913804  0.08009148     0.18100
C1045       C  0.60678068  0.58402239  0.06640602     0.15400
C1046       C  0.59935761  0.58985982  0.01562579    -0.19100
C1047       C  0.58446231  0.58281109  0.10375017    -0.20900
C1048       C  0.59214764  0.57733722  0.15427940    -0.13500
C1049       C  0.62208420  0.57205208  0.16784610     0.03200
C1050       C  0.64444907  0.57260223  0.13069806    -0.25600
H1051       H  0.66956995  0.58772596  0.96451898     0.08300
H1052       H  0.68271786  0.57773709  0.05291414     0.11900
H1053       H  0.57605896  0.59267962  0.00511949     0.11800
H1054       H  0.56116985  0.58655271  0.09399214     0.11500
H1055       H  0.57475293  0.57725338  0.18292059     0.12100
H1056       H  0.66763978  0.56916508  0.14153389     0.14000
C1057       C  0.62583989  0.59837864  0.47746675    -0.06000
C1058       C  0.59686438  0.58861359  0.49221218    -0.05900
C1059       C  0.59075389  0.58013447  0.54231850    -0.24100
C1060       C  0.61364384  0.58066907  0.57827789     0.18100
C1061       C  0.64274177  0.59131371  0.56434263     0.15400
C1062       C  0.64853068  0.60075774  0.51402870    -0.19100
C1063       C  0.66559171  0.59131888  0.60067918    -0.20900
C1064       C  0.65957152  0.58086350  0.65036936    -0.13500
C1065       C  0.63066419  0.57007057  0.66415125     0.03200
C1066       C  0.60785881  0.57020365  0.62780031    -0.25600
H1067       H  0.57909288  0.58653452  0.46461822     0.08300
H1068       H  0.56830751  0.57213224  0.55262081     0.11900
H1069       H  0.67103571  0.60799791  0.50280259     0.11800
H1070       H  0.68808787  0.59926540  0.59063091     0.11500
H1071       H  0.67742828  0.58130021  0.67795578     0.12100
H1072       H  0.58533417  0.56242773  0.63808198     0.14000
C1073       C  0.59811693  0.80888510  0.31181628    -0.06000
C1074       C  0.57403228  0.78606356  0.31016392    -0.05900
C1075       C  0.57913431  0.75141498  0.30690179    -0.24100
C1076       C  0.60843827  0.73888593  0.30551438     0.18100
C1077       C  0.63284751  0.76153146  0.30594836     0.15400
C1078       C  0.62754820  0.79633135  0.30884800    -0.19100
C1079       C  0.66215381  0.74891855  0.30488030    -0.20900
C1080       C  0.66725502  0.71414835  0.30529851    -0.13500
C1081       C  0.64315120  0.69136326  0.30656389     0.03200
C1082       C  0.61372597  0.70406684  0.30539001    -0.25600
H1083       H  0.55120635  0.79494403  0.31233601     0.08300
H1084       H  0.56014668  0.73437056  0.30652141     0.11900
H1085       H  0.64640495  0.81354538  0.31005078     0.11800
H1086       H  0.68115059  0.76594405  0.30506053     0.11500
H1087       H  0.69006085  0.70512042  0.30630908     0.12100
H1088       H  0.59482873  0.68687440  0.30621829     0.14000
C1089       C  0.75150325  0.57361144  0.24894569    -0.06000
C1090       C  0.77742907  0.58438840  0.27430999    -0.05900
C1091       C  0.80565798  0.57224640  0.26014869    -0.24100
C1092       C  0.80836118  0.54882067  0.22075075     0.18100
C1093       C  0.78276694  0.54045027  0.19202041     0.15400
C1094       C  0.75471490  0.55348151  0.20556166    -0.19100
C1095       C  0.78501180  0.51649443  0.15346050    -0.20900
C1096       C  0.81145351  0.49845008  0.14690108    -0.13500
C1097       C  0.83643178  0.50479404  0.17748801     0.03200
C1098       C  0.83535638  0.53130602  0.21260475    -0.25600
H1099       H  0.77567526  0.59989303  0.30777260     0.08300
H1100       H  0.82500996  0.57926401  0.28236873     0.11900
H1101       H  0.73496701  0.54515326  0.18534750     0.11800
H1102       H  0.76566131  0.50989521  0.13092288     0.11500
H1103       H  0.81184937  0.47798834  0.11996295     0.12100
H1104       H  0.85438701  0.53584724  0.23702065     0.14000
C1105       C  0.00188045  0.42423697  0.25749787    -0.06000
C1106       C  0.52788422  0.41253245  0.23342805    -0.05900
C1107       C  0.55619035  0.42372144  0.24893196    -0.24100
C1108       C  0.55888673  0.44694997  0.28855254     0.18100
C1109       C  0.53303250  0.45619163  0.31607088     0.15400
C1110       C  0.00480845  0.44439676  0.30083743    -0.19100
C1111       C  0.53539939  0.47980610  0.35506408    -0.20900
C1112       C  0.56229609  0.49698217  0.36276255    -0.13500
C1113       C  0.58745496  0.49021825  0.33261714     0.03200
C1114       C  0.58624347  0.46363106  0.29775914    -0.25600
H1115       H  0.52624636  0.39705556  0.19991930     0.08300
H1116       H  0.57572691  0.41609998  0.22760977     0.11900
H1117       H  0.98490511  0.45344629  0.31986204     0.11800
H1118       H  0.51588173  0.48697957  0.37681167     0.11500
H1119       H  0.56282241  0.51751191  0.38959303     0.12100
H1120       H  0.60543897  0.45873926  0.27378368     0.14000
loop_ 
_geom_bond_atom_site_label_1 
_geom_bond_atom_site_label_2 
_geom_bond_distance 
_geom_bond_site_symmetry_2 
_ccdc_geom_bond_type 
O1           C16   1.254       .  A
O1           Al9   1.880       .  S
C2           O12   1.261       .  A
C2            O3   1.269       .  A
C2          C497   1.468       .  S
O3           Al5   1.931       .  S
O4            C6   1.256       .  A
O4           Al5   1.863       .  S
Al5          O13   1.919       .  S
Al5          O15   1.924       .  S
Al5          O14   1.791       .  S
C6           O19   1.270       .  A
C6          C465   1.480       .  S
O7           C17   1.255       .  A
O7           Al9   1.919       .  S
O8           C21   1.264       .  A
O8          Al18   1.868       .  S
Al9          O22   1.939       .  S
Al9          O19   1.951       .  S
Al9          O14   1.789       .  S
O10          C17   1.250       .  A
O10         Al18   1.879       .  S
O11          C20   1.257       .  A
O11         Al18   1.901       .  S
O12         Al18   1.867       .  S
O13          C20   1.262       .  A
O14         Al18   1.789       .  S
O15          C16   1.262       .  A
C16         C529   1.488       .  S
C17         C553   1.474       .  S
C20         C521   1.486       .  S
C21          O22   1.275       .  A
C21         C489   1.462       .  S
O23          C38   1.253       .  A
O23         Al31   1.874       .  S
C24          O34   1.266       .  A
C24          O25   1.267       .  A
C24         C425   1.478       .  S
O25         Al27   1.919       .  S
O26          C28   1.259       .  A
O26         Al27   1.877       .  S
Al27         O35   1.911       .  S
Al27         O37   1.929       .  S
Al27         O36   1.784       .  S
C28          O41   1.269       .  A
C28         C385   1.484       .  S
O29          C39   1.256       .  A
O29         Al31   1.901       .  S
O30          C43   1.267       .  A
O30         Al40   1.904       .  S
Al31         O44   1.915       .  S
Al31         O41   1.939       .  S
Al31         O36   1.777       .  S
O32          C39   1.258       .  A
O32         Al40   1.909       .  S
O33          C42   1.263       .  A
O33         Al40   1.922       .  S
O34         Al40   1.902       .  S
O35          C42   1.264       .  A
O36         Al40   1.782       .  S
O37          C38   1.262       .  A
C38         C441   1.481   1_455  S
C39         C457   1.470   1_565  S
C42         C513   1.487       .  S
C43          O44   1.269       .  A
C43         C401   1.479       .  S
O45          C60   1.266       .  A
O45         Al53   1.876       .  S
C46          O56   1.257       .  A
C46          O47   1.263       .  A
C46         C409   1.473       .  S
O47         Al49   1.906       .  S
O48          C50   1.249       .  A
O48         Al49   1.892       .  S
Al49         O57   1.868       .  S
Al49         O59   1.942       .  S
Al49         O58   1.779       .  S
C50          O63   1.253       .  A
C50         C337   1.484   1_565  S
O51          C61   1.271       .  A
O51         Al53   1.896       .  S
O52          C65   1.260       .  A
O52         Al62   1.926       .  S
Al53         O66   1.887       .  S
Al53         O63   1.917       .  S
Al53         O58   1.790       .  S
O54          C61   1.275       .  A
O54         Al62   1.936       .  S
O55          C64   1.264       .  A
O55         Al62   1.934       .  S
O56         Al62   1.881       .  S
O57          C64   1.253       .  A
O58         Al62   1.793       .  S
O59          C60   1.276       .  A
C60         C417   1.479       .  S
C61         C377   1.481       .  S
C64         C321   1.491       .  S
C65          O66   1.254       .  A
C65         C361   1.473       .  S
O67          C82   1.265       .  A
O67         Al75   1.871       .  S
C68          O78   1.258       .  A
C68          O69   1.260       .  A
C68         C481   1.476       .  S
O69         Al71   1.895       .  S
O70          C72   1.250       .  A
O70         Al71   1.884       .  S
Al71         O79   1.867       .  S
Al71         O81   1.929       .  S
Al71         O80   1.782       .  S
C72          O85   1.257       .  A
C72         C273   1.483       .  S
O73          C83   1.271       .  A
O73         Al75   1.909       .  S
O74          C87   1.263       .  A
O74         Al84   1.920       .  S
Al75         O88   1.903       .  S
Al75         O85   1.930       .  S
Al75         O80   1.788       .  S
O76          C83   1.271       .  A
O76         Al84   1.923       .  S
O77          C86   1.265       .  A
O77         Al84   1.940       .  S
O78         Al84   1.884       .  S
O79          C86   1.253       .  A
O80         Al84   1.787       .  S
O81          C82   1.270       .  A
C82         C505   1.472       .  S
C83         C313   1.483       .  S
C86         C329   1.486       .  S
C87          O88   1.259       .  A
C87         C849   1.476       .  S
O89         C104   1.254       .  A
O89         Al97   1.863       .  S
C90         O100   1.267       .  A
C90          O91   1.273       .  A
C90         C225   1.479       .  S
O91         Al93   1.934       .  S
O92          C94   1.255       .  A
O92         Al93   1.877       .  S
Al93        O101   1.915       .  S
Al93        O103   1.934       .  S
Al93        O102   1.792       .  S
C94         O107   1.262       .  A
C94         C369   1.479       .  S
O95         C105   1.252       .  A
O95         Al97   1.900       .  S
O96         C109   1.270       .  A
O96        Al106   1.898       .  S
Al97        O110   1.918       .  S
Al97        O107   1.912       .  S
Al97        O102   1.782       .  S
O98         C105   1.255       .  A
O98        Al106   1.904       .  S
O99         C108   1.257       .  A
O99        Al106   1.910       .  S
O100       Al106   1.884       .  S
O101        C108   1.259       .  A
O102       Al106   1.786       .  S
O103        C104   1.264       .  A
C104        C449   1.477       .  S
C105        C433   1.466   1_545  S
C108        C257   1.490       .  S
C109        O110   1.271       .  A
C109        C241   1.476       .  S
O111        C126   1.255       .  A
O111       Al119   1.882       .  S
C112        O122   1.275       .  A
C112        O113   1.272       .  A
C112        C193   1.489       .  S
O113       Al115   1.927       .  S
O114        C116   1.259       .  A
O114       Al115   1.886       .  S
Al115       O123   1.926       .  S
Al115       O125   1.913       .  S
Al115       O124   1.794       .  S
C116        O129   1.264       .  A
C116        C305   1.480       .  S
O117        C127   1.252       .  A
O117       Al119   1.915       .  S
O118        C131   1.279       .  A
O118       Al128   1.935       .  S
Al119       O132   1.916       .  S
Al119       O129   1.909       .  S
Al119       O124   1.786       .  S
O120        C127   1.248       .  A
O120       Al128   1.887       .  S
O121        C130   1.254       .  A
O121       Al128   1.905       .  S
O122       Al128   1.933       .  S
O123        C130   1.260       .  A
O124       Al128   1.783       .  S
O125        C126   1.259       .  A
C126        C545   1.484       .  S
C127        C537   1.477       .  S
C130        C265   1.492       .  S
C131        O132   1.274       .  A
C131        C209   1.490       .  S
O133        C148   1.276       .  A
O133       Al141   1.939       .  S
C134        O144   1.267       .  A
C134        O135   1.274       .  A
C134        C217   1.481       .  S
O135       Al137   1.931       .  S
O136        C138   1.249       .  A
O136       Al137   1.882       .  S
Al137       O145   1.893       .  S
Al137       O147   1.916       .  S
Al137       O146   1.776       .  S
C138        O151   1.255       .  A
C138        C297   1.473       .  S
O139        C149   1.269       .  A
O139       Al141   1.937       .  S
O140        C153   1.260       .  A
O140       Al150   1.917       .  S
Al141       O154   1.876       .  S
Al141       O151   1.922       .  S
Al141       O146   1.785       .  S
O142        C149   1.259       .  A
O142       Al150   1.879       .  S
O143        C152   1.265       .  A
O143       Al150   1.930       .  S
O144       Al150   1.921       .  S
O145        C152   1.256       .  A
O146       Al150   1.790       .  S
O147        C148   1.274       .  A
C148        C201   1.494       .  S
C149        C473   1.479       .  S
C152        C177   1.485       .  S
C153        O154   1.253       .  A
C153        C281   1.480       .  S
O155        C170   1.271       .  A
O155       Al163   1.922       .  S
C156        O166   1.262       .  A
C156        O157   1.266       .  A
C156        C249   1.473       .  S
O157       Al159   1.907       .  S
O158        C160   1.253       .  A
O158       Al159   1.893       .  S
Al159       O167   1.906       .  S
Al159       O169   1.889       .  S
Al159       O168   1.780       .  S
C160        O173   1.253       .  A
C160        C353   1.478   1_545  S
O161        C171   1.275       .  A
O161       Al163   1.944       .  S
O162        C175   1.257       .  A
O162       Al172   1.919       .  S
Al163       O176   1.878       .  S
Al163       O173   1.902       .  S
Al163       O168   1.780       .  S
O164        C171   1.263       .  A
O164       Al172   1.880       .  S
O165        C174   1.271       .  A
O165       Al172   1.929       .  S
O166       Al172   1.913       .  S
O167        C174   1.264       .  A
O168       Al172   1.794       .  S
O169        C170   1.265       .  A
C170        C233   1.477       .  S
C171        C393   1.483       .  S
C174        C185   1.486       .  S
C175        O176   1.250       .  A
C175        C905   1.485       .  S
C177        C178   1.411       .  A
C177        C182   1.403       .  A
C178        C179   1.396       .  A
C178        H187   1.083       .  S
C179        C180   1.398       .  A
C179        H188   1.083       .  S
C180        C186   1.410       .  A
C180        C181   1.417       .  A
C181        C183   1.397       .  A
C181        C182   1.409       .  A
C182        H189   1.084       .  S
C183        C184   1.395       .  A
C183        H190   1.083       .  S
C184        C185   1.411       .  A
C184        H191   1.083       .  S
C185        C186   1.404       .  A
C186        H192   1.084       .  S
C193        C194   1.407   1_554  A
C193        C198   1.410       .  A
C194        C195   1.398       .  A
C194        H203   1.083   1_556  S
C195        C196   1.401       .  A
C195        H204   1.084       .  S
C196        C202   1.410       .  A
C196        C197   1.415       .  A
C197        C199   1.403       .  A
C197        C198   1.414   1_556  A
C198        H205   1.084       .  S
C199        C200   1.403       .  A
C199        H206   1.084       .  S
C200        C201   1.410       .  A
C200        H207   1.083       .  S
C201        C202   1.409       .  A
C202        H208   1.084       .  S
C209        C210   1.410       .  A
C209        C214   1.408       .  A
C210        C211   1.395       .  A
C210        H219   1.083       .  S
C211        C212   1.398       .  A
C211        H220   1.084       .  S
C212        C218   1.408       .  A
C212        C213   1.416       .  A
C213        C215   1.402       .  A
C213        C214   1.413       .  A
C214        H221   1.084       .  S
C215        C216   1.400       .  A
C215        H222   1.084       .  S
C216        C217   1.408       .  A
C216        H223   1.083       .  S
C217        C218   1.403       .  A
C218        H224   1.085       .  S
C225        C226   1.406       .  A
C225        C230   1.408       .  A
C226        C227   1.395   1_554  A
C226        H235   1.083       .  S
C227        C228   1.401       .  A
C227        H236   1.084       .  S
C228        C234   1.402       .  A
C228        C229   1.413       .  A
C229        C231   1.403       .  A
C229        C230   1.404   1_556  A
C230        H237   1.084       .  S
C231        C232   1.398       .  A
C231        H238   1.084       .  S
C232        C233   1.406       .  A
C232        H239   1.083       .  S
C233        C234   1.405       .  A
C234        H240   1.084       .  S
C241        C242   1.408       .  A
C241        C246   1.404       .  A
C242        C243   1.393       .  A
C242        H251   1.083       .  S
C243        C244   1.398       .  A
C243        H252   1.084       .  S
C244        C250   1.401       .  A
C244        C245   1.415       .  A
C245        C247   1.400       .  A
C245        C246   1.402       .  A
C246        H253   1.085       .  S
C247        C248   1.395       .  A
C247        H254   1.084       .  S
C248        C249   1.408       .  A
C248        H255   1.083       .  S
C249        C250   1.401       .  A
C250        H256   1.085       .  S
C257        C258   1.406       .  A
C257        C262   1.412       .  A
C258        C259   1.401       .  A
C258        H267   1.083       .  S
C259        C260   1.405       .  A
C259        H268   1.084       .  S
C260        C266   1.407       .  A
C260        C261   1.411       .  A
C261        C263   1.406       .  A
C261        C262   1.409       .  A
C262        H269   1.084       .  S
C263        C264   1.403       .  A
C263        H270   1.084       .  S
C264        C265   1.405       .  A
C264        H271   1.082       .  S
C265        C266   1.413       .  A
C266        H272   1.085       .  S
C273        C274   1.407       .  A
C273        C278   1.408       .  A
C274        C275   1.396       .  A
C274        H283   1.083       .  S
C275        C276   1.400       .  A
C275        H284   1.084       .  S
C276        C282   1.404       .  A
C276        C277   1.414       .  A
C277        C279   1.404       .  A
C277        C278   1.408       .  A
C278        H285   1.084       .  S
C279        C280   1.401       .  A
C279        H286   1.084       .  S
C280        C281   1.405       .  A
C280        H287   1.083       .  S
C281        C282   1.407       .  A
C282        H288   1.085       .  S
C289        C647   1.476       .  S
C289        C290   1.404       .  A
C289        C294   1.406       .  A
C290        C291   1.402       .  A
C290        H299   1.083       .  S
C291        C292   1.405       .  A
C291        H300   1.083       .  S
C292        C298   1.410       .  A
C292        C293   1.415       .  A
C293        C295   1.402       .  A
C293        C294   1.407       .  A
C294        H861   1.085       .  S
C295        C296   1.398       .  A
C295        H302   1.084       .  S
C296        C297   1.403       .  A
C296        H303   1.084       .  S
C297        C298   1.406       .  A
C298        H304   1.085       .  S
H301        C854   1.085   1_455  S
C305        C306   1.404       .  A
C305        C310   1.410       .  A
C306        C307   1.397       .  A
C306        H315   1.083       .  S
C307        C868   1.403   1_554  A
C307        H876   1.084       .  S
C308        C314   1.401   1_655  A
C308        C867   1.403   1_556  A
C308        C869   1.412   1_655  A
C309        C311   1.405       .  A
C309        C310   1.405   1_556  A
C309        C868   1.412       .  A
C310        H317   1.084       .  S
C311        C872   1.401       .  A
C311        H318   1.084       .  S
C312        C313   1.405       .  A
C312        C871   1.401       .  A
C312        H319   1.083       .  S
C313        C314   1.409       .  A
C314        H320   1.084       .  S
H316        C867   1.084       .  S
C321        C322   1.412       .  A
C321        C326   1.405       .  A
C322        C323   1.397       .  A
C322        H331   1.083       .  S
C323        C324   1.399       .  A
C323        H332   1.084       .  S
C324        C330   1.412       .  A
C324        C325   1.417       .  A
C325        C327   1.399       .  A
C325        C326   1.411       .  A
C326        H333   1.084       .  S
C327        C328   1.396       .  A
C327        H334   1.084       .  S
C328        C329   1.410       .  A
C328        H335   1.083       .  S
C329        C330   1.404       .  A
C330        H336   1.084       .  S
C337        C338   1.406       .  A
C337        C342   1.409       .  A
C338        C339   1.397       .  A
C338        H347   1.083   1_545  S
C339        C340   1.402       .  A
C339        H348   1.084       .  S
C340        C346   1.404       .  A
C340        C341   1.413       .  A
C341        C343   1.404       .  A
C341        C342   1.408       .  A
C342        H349   1.084       .  S
C343        C344   1.401       .  A
C343        H350   1.084       .  S
C344        C345   1.406   1_455  A
C344        H911   1.083       .  S
C345        C735   1.485       .  S
C345        C346   1.409   1_655  A
C346        H352   1.085   1_455  S
H351        C904   1.083       .  S
C353        C354   1.405       .  A
C353        C358   1.404       .  A
C354        C355   1.401       .  A
C354        H363   1.084       .  S
C355        C356   1.404       .  A
C355        H364   1.083       .  S
C356        C362   1.411       .  A
C356        C357   1.416       .  A
C357        C359   1.400       .  A
C357        C358   1.406       .  A
C358        H365   1.085       .  S
C359        C360   1.396       .  A
C359        H366   1.084       .  S
C360        C361   1.404       .  A
C360        H367   1.084       .  S
C361        C362   1.406       .  A
C362        H368   1.084       .  S
C369        C370   1.404   1_545  A
C369        C374   1.408       .  A
C370        C371   1.397       .  A
C370        H379   1.083       .  S
C371        C372   1.403   1_554  A
C371        H380   1.084       .  S
C372        C378   1.402       .  A
C372        C373   1.413   1_565  A
C373        C375   1.403       .  A
C373        C374   1.403   1_556  A
C374        H381   1.085       .  S
C375        C376   1.398       .  A
C375        H382   1.084       .  S
C376        C377   1.406   1_545  A
C376        H383   1.083       .  S
C377        C378   1.407       .  A
C378        H384   1.084       .  S
C385        C386   1.405   1_565  A
C385        C390   1.410       .  A
C386        C387   1.401   1_455  A
C386        H395   1.083       .  S
C387        C388   1.405       .  A
C387        H396   1.084       .  S
C388        C954   1.405       .  A
C388        C949   1.412   1_645  A
C389        C391   1.404       .  A
C389        C948   1.412   1_565  A
C389        C950   1.403       .  A
C390        C949   1.403       .  A
C390        H957   1.085       .  S
C391        C392   1.399       .  A
C391        H398   1.084       .  S
C392        C393   1.404   1_565  A
C392        H399   1.083       .  S
C393        C394   1.412       .  A
C394        C948   1.405       .  A
C394        H960   1.085       .  S
H397        C950   1.085       .  S
H400        C954   1.085       .  S
C401        C402   1.407       .  A
C401        C406   1.407       .  A
C402        C403   1.393       .  A
C402        H411   1.083       .  S
C403        C404   1.398       .  A
C403        H412   1.084       .  S
C404        C410   1.401   1_554  A
C404        C405   1.415       .  A
C405        C407   1.403       .  A
C405        C406   1.407       .  A
C406        H413   1.084       .  S
C407        C408   1.399       .  A
C407        H414   1.083       .  S
C408        C409   1.405   1_554  A
C408        H415   1.084   1_554  S
C409        C410   1.402       .  A
C410        H416   1.085       .  S
C417        C418   1.405       .  A
C417        C422   1.409       .  A
C418        C419   1.397       .  A
C418        H427   1.083       .  S
C419        C420   1.403       .  A
C419        H428   1.084       .  S
C420        C426   1.400       .  A
C420        C421   1.412       .  A
C421        C423   1.404       .  A
C421        C422   1.401       .  A
C422        H429   1.084       .  S
C423        C424   1.398       .  A
C423        H430   1.084       .  S
C424        C425   1.404       .  A
C424        H431   1.083       .  S
C425        C426   1.408       .  A
C426        H432   1.084       .  S
C433        C434   1.400       .  A
C433        C438   1.405       .  A
C434        C435   1.396       .  A
C434        H443   1.083   1_565  S
C435        C436   1.403       .  A
C435        H444   1.084       .  S
C436        C442   1.401       .  A
C436        C437   1.414       .  A
C437        C439   1.405       .  A
C437        C438   1.406       .  A
C438        H445   1.085       .  S
C439        C440   1.401       .  A
C439        H446   1.084       .  S
C440       C1001   1.405       .  A
C440       H1007   1.083       .  S
C441       C1000   1.405       .  A
C441       C1002   1.407       .  A
C442       C1001   1.407       .  A
C442        H448   1.085       .  S
H447       C1000   1.083       .  S
C449        C450   1.407       .  A
C449        C454   1.406       .  A
C450        C451   1.395       .  A
C450        H459   1.084       .  S
C451        C452   1.399       .  A
C451        H460   1.083       .  S
C452        C458   1.405       .  A
C452        C453   1.416       .  A
C453        C455   1.403       .  A
C453        C454   1.409       .  A
C454        H461   1.084       .  S
C455        C456   1.400       .  A
C455        H462   1.083       .  S
C456        C457   1.404       .  A
C456        H463   1.084       .  S
C457        C458   1.401       .  A
C458        H464   1.085       .  S
C465        C466   1.406       .  A
C465        C470   1.405       .  A
C466        C467   1.394       .  A
C466        H475   1.080       .  S
C467        C468   1.399       .  A
C467        H476   1.084       .  S
C468        C474   1.407       .  A
C468        C469   1.418       .  A
C469        C471   1.402       .  A
C469        C470   1.413       .  A
C470        H477   1.084       .  S
C471        C472   1.400       .  A
C471        H478   1.083       .  S
C472        C473   1.407       .  A
C472        H479   1.084       .  S
C473        C474   1.402       .  A
C474        H480   1.084       .  S
C481        C482   1.406       .  A
C481        C486   1.406   1_556  A
C482        C483   1.395   1_556  A
C482        H491   1.083       .  S
C483        C484   1.399       .  A
C483        H492   1.084       .  S
C484        C490   1.401       .  A
C484        C485   1.415       .  A
C485        C487   1.402       .  A
C485        C486   1.401       .  A
C486        H493   1.085       .  S
C487        C488   1.395       .  A
C487        H494   1.084       .  S
C488        C489   1.403       .  A
C488        H495   1.083       .  S
C489        C490   1.399       .  A
C490        H496   1.085       .  S
C497        C498   1.404       .  A
C497        C502   1.406       .  A
C498        C499   1.390       .  A
C498        H507   1.083       .  S
C499        C500   1.398       .  A
C499        H508   1.085       .  S
C500        C506   1.393       .  A
C500        C501   1.413       .  A
C501        C503   1.404       .  A
C501        C502   1.402       .  A
C502        H509   1.085       .  S
C503        C504   1.399       .  A
C503        H510   1.084       .  S
C504        C505   1.406       .  A
C504        H511   1.083       .  S
C505        C506   1.402       .  A
C506        H512   1.085       .  S
C513        C514   1.405       .  A
C513        C518   1.411       .  A
C514        C515   1.400       .  A
C514        H523   1.083       .  S
C515        C516   1.404       .  A
C515        H524   1.083       .  S
C516        C522   1.405       .  A
C516        C517   1.411       .  A
C517        C519   1.405       .  A
C517        C518   1.406       .  A
C518        H525   1.084       .  S
C519        C520   1.401       .  A
C519        H526   1.083       .  S
C520        C521   1.404       .  A
C520        H527   1.083       .  S
C521        C522   1.412       .  A
C522        H528   1.084       .  S
C529        C530   1.407       .  A
C529        C534   1.409       .  A
C530        C531   1.404       .  A
C530        H539   1.083       .  S
C531        C532   1.406       .  A
C531        H540   1.083       .  S
C532        C538   1.413       .  A
C532        C533   1.414       .  A
C533        C535   1.402       .  A
C533        C534   1.405       .  A
C534        H541   1.084       .  S
C535        C536   1.396       .  A
C535        H542   1.084       .  S
C536        C537   1.403       .  A
C536        H543   1.084       .  S
C537        C538   1.409       .  A
C538        H544   1.084       .  S
C545        C550   1.407       .  A
C545       C1106   1.406       .  A
C546        C547   1.402       .  A
C546       C1105   1.406       .  A
C546        H555   1.083       .  S
C547        C548   1.404       .  A
C547        H556   1.083       .  S
C548        C554   1.411       .  A
C548        C549   1.415       .  A
C549        C551   1.401       .  A
C549       C1110   1.405       .  A
C550       C1109   1.405       .  A
C550        H557   1.085       .  S
C551        C552   1.396       .  A
C551        H558   1.084       .  S
C552        C553   1.404       .  A
C552        H559   1.084       .  S
C553        C554   1.406       .  A
C554        H560   1.084       .  S
O561        C576   1.254       .  A
O561       Al569   1.880       .  S
C562        O572   1.261       .  A
C562        O563   1.269       .  A
C562       C1057   1.468       .  S
O563       Al565   1.931       .  S
O564        C566   1.256       .  A
O564       Al565   1.863       .  S
Al565       O573   1.919       .  S
Al565       O575   1.924       .  S
Al565       O574   1.791       .  S
C566        O579   1.270       .  A
C566       C1025   1.480       .  S
O567        C577   1.255       .  A
O567       Al569   1.919       .  S
O568        C581   1.264       .  A
O568       Al578   1.868       .  S
Al569       O582   1.939       .  S
Al569       O579   1.951       .  S
Al569       O574   1.789       .  S
O570        C577   1.250       .  A
O570       Al578   1.879       .  S
O571        C580   1.257       .  A
O571       Al578   1.901       .  S
O572       Al578   1.867       .  S
O573        C580   1.262       .  A
O574       Al578   1.789       .  S
O575        C576   1.262       .  A
C576       C1089   1.488       .  S
C577       C1113   1.474       .  S
C580       C1081   1.486       .  S
C581        O582   1.275       .  A
C581       C1049   1.462       .  S
O583        C598   1.253       .  A
O583       Al591   1.874       .  S
C584        O594   1.266       .  A
C584        O585   1.267       .  A
C584        C985   1.478       .  S
O585       Al587   1.919       .  S
O586        C588   1.259       .  A
O586       Al587   1.877       .  S
Al587       O595   1.911       .  S
Al587       O597   1.929       .  S
Al587       O596   1.784       .  S
C588        O601   1.269       .  A
C588        C945   1.484       .  S
O589        C599   1.256       .  A
O589       Al591   1.901       .  S
O590        C603   1.267       .  A
O590       Al600   1.904       .  S
Al591       O604   1.915       .  S
Al591       O601   1.939       .  S
Al591       O596   1.777       .  S
O592        C599   1.258       .  A
O592       Al600   1.909       .  S
O593        C602   1.264       .  A
O593       Al600   1.922       .  S
O594       Al600   1.902       .  S
O595        C602   1.264       .  A
O596       Al600   1.782       .  S
O597        C598   1.262       .  A
C598       C1001   1.481       .  S
C599       C1017   1.470   1_565  S
C602       C1073   1.487       .  S
C603        O604   1.269       .  A
C603        C961   1.479       .  S
O605        C620   1.266       .  A
O605       Al613   1.876       .  S
C606        O616   1.257       .  A
C606        O607   1.263       .  A
C606        C969   1.473       .  S
O607       Al609   1.906       .  S
O608        C610   1.249       .  A
O608       Al609   1.892       .  S
Al609       O617   1.868       .  S
Al609       O619   1.942       .  S
Al609       O618   1.779       .  S
C610        O623   1.253       .  A
C610        C897   1.484   1_565  S
O611        C621   1.271       .  A
O611       Al613   1.896       .  S
O612        C625   1.260       .  A
O612       Al622   1.926       .  S
Al613       O626   1.887       .  S
Al613       O623   1.917       .  S
Al613       O618   1.790       .  S
O614        C621   1.275       .  A
O614       Al622   1.936       .  S
O615        C624   1.264       .  A
O615       Al622   1.934       .  S
O616       Al622   1.881       .  S
O617        C624   1.253       .  A
O618       Al622   1.793       .  S
O619        C620   1.276       .  A
C620        C977   1.479       .  S
C621        C937   1.481       .  S
C624        C881   1.491       .  S
C625        O626   1.254       .  A
C625        C921   1.473       .  S
O627        C642   1.265       .  A
O627       Al635   1.871       .  S
C628        O638   1.258       .  A
C628        O629   1.260       .  A
C628       C1041   1.476       .  S
O629       Al631   1.895       .  S
O630        C632   1.250       .  A
O630       Al631   1.884       .  S
Al631       O639   1.867       .  S
Al631       O641   1.929       .  S
Al631       O640   1.782       .  S
C632        O645   1.257       .  A
C632        C833   1.483       .  S
O633        C643   1.271       .  A
O633       Al635   1.909       .  S
O634        C647   1.263       .  A
O634       Al644   1.920       .  S
Al635       O648   1.903       .  S
Al635       O645   1.930       .  S
Al635       O640   1.788       .  S
O636        C643   1.271       .  A
O636       Al644   1.923       .  S
O637        C646   1.265       .  A
O637       Al644   1.940       .  S
O638       Al644   1.884       .  S
O639        C646   1.253       .  A
O640       Al644   1.787       .  S
O641        C642   1.270       .  A
C642       C1065   1.472       .  S
C643        C873   1.483       .  S
C646        C889   1.486       .  S
C647        O648   1.259       .  A
O649        C664   1.254       .  A
O649       Al657   1.863       .  S
C650        O660   1.267       .  A
C650        O651   1.273       .  A
C650        C785   1.479       .  S
O651       Al653   1.934       .  S
O652        C654   1.255       .  A
O652       Al653   1.877       .  S
Al653       O661   1.915       .  S
Al653       O663   1.934       .  S
Al653       O662   1.792       .  S
C654        O667   1.262       .  A
C654        C929   1.479       .  S
O655        C665   1.252       .  A
O655       Al657   1.900       .  S
O656        C669   1.270       .  A
O656       Al666   1.898       .  S
Al657       O670   1.918       .  S
Al657       O667   1.912       .  S
Al657       O662   1.782       .  S
O658        C665   1.255       .  A
O658       Al666   1.904       .  S
O659        C668   1.257       .  A
O659       Al666   1.910       .  S
O660       Al666   1.884       .  S
O661        C668   1.259       .  A
O662       Al666   1.786       .  S
O663        C664   1.264       .  A
C664       C1009   1.477       .  S
C665        C993   1.466   1_545  S
C668        C817   1.490       .  S
C669        O670   1.271       .  A
C669        C801   1.476       .  S
O671        C686   1.255       .  A
O671       Al679   1.882       .  S
C672        O682   1.275       .  A
C672        O673   1.272       .  A
C672        C753   1.489       .  S
O673       Al675   1.927       .  S
O674        C676   1.259       .  A
O674       Al675   1.886       .  S
Al675       O683   1.926       .  S
Al675       O685   1.913       .  S
Al675       O684   1.794       .  S
C676        O689   1.264       .  A
C676        C865   1.480       .  S
O677        C687   1.252       .  A
O677       Al679   1.915       .  S
O678        C691   1.279       .  A
O678       Al688   1.935       .  S
Al679       O692   1.916       .  S
Al679       O689   1.909       .  S
Al679       O684   1.786       .  S
O680        C687   1.248       .  A
O680       Al688   1.887       .  S
O681        C690   1.254       .  A
O681       Al688   1.905       .  S
O682       Al688   1.933       .  S
O683        C690   1.260       .  A
O684       Al688   1.783       .  S
O685        C686   1.259       .  A
C686       C1105   1.484   1_655  S
C687       C1097   1.477       .  S
C690        C825   1.492       .  S
C691        O692   1.274       .  A
C691        C769   1.490       .  S
O693        C708   1.276       .  A
O693       Al701   1.939       .  S
C694        O704   1.267       .  A
C694        O695   1.274       .  A
C694        C777   1.481       .  S
O695       Al697   1.931       .  S
O696        C698   1.249       .  A
O696       Al697   1.882       .  S
Al697       O705   1.893       .  S
Al697       O707   1.916       .  S
Al697       O706   1.776       .  S
C698        O711   1.255       .  A
C698        C857   1.473       .  S
O699        C709   1.269       .  A
O699       Al701   1.937       .  S
O700        C713   1.260       .  A
O700       Al710   1.917       .  S
Al701       O714   1.876       .  S
Al701       O711   1.922       .  S
Al701       O706   1.785       .  S
O702        C709   1.259       .  A
O702       Al710   1.879       .  S
O703        C712   1.265       .  A
O703       Al710   1.930       .  S
O704       Al710   1.921       .  S
O705        C712   1.256       .  A
O706       Al710   1.790       .  S
O707        C708   1.274       .  A
C708        C761   1.494       .  S
C709       C1033   1.479       .  S
C712        C737   1.485       .  S
C713        O714   1.253       .  A
C713        C841   1.480       .  S
O715        C730   1.271       .  A
O715       Al723   1.922       .  S
C716        O726   1.262       .  A
C716        O717   1.266       .  A
C716        C809   1.473       .  S
O717       Al719   1.907       .  S
O718        C720   1.253       .  A
O718       Al719   1.893       .  S
Al719       O727   1.906       .  S
Al719       O729   1.889       .  S
Al719       O728   1.780       .  S
C720        O733   1.253       .  A
C720        C913   1.478   1_545  S
O721        C731   1.275       .  A
O721       Al723   1.944       .  S
O722        C735   1.257       .  A
O722       Al732   1.919       .  S
Al723       O736   1.878       .  S
Al723       O733   1.902       .  S
Al723       O728   1.780       .  S
O724        C731   1.263       .  A
O724       Al732   1.880       .  S
O725        C734   1.271       .  A
O725       Al732   1.929       .  S
O726       Al732   1.913       .  S
O727        C734   1.264       .  A
O728       Al732   1.794       .  S
O729        C730   1.265       .  A
C730        C793   1.477       .  S
C731        C953   1.483       .  S
C734        C745   1.486       .  S
C735        O736   1.250       .  A
C737        C738   1.411       .  A
C737        C742   1.403       .  A
C738        C739   1.396       .  A
C738        H747   1.083       .  S
C739        C740   1.398       .  A
C739        H748   1.083       .  S
C740        C746   1.410       .  A
C740        C741   1.417       .  A
C741        C743   1.397       .  A
C741        C742   1.409       .  A
C742        H749   1.084       .  S
C743        C744   1.395       .  A
C743        H750   1.083       .  S
C744        C745   1.411       .  A
C744        H751   1.083       .  S
C745        C746   1.404       .  A
C746        H752   1.084       .  S
C753        C754   1.407   1_554  A
C753        C758   1.410       .  A
C754        C755   1.398       .  A
C754        H763   1.083   1_556  S
C755        C756   1.401       .  A
C755        H764   1.084       .  S
C756        C762   1.410       .  A
C756        C757   1.415       .  A
C757        C759   1.403       .  A
C757        C758   1.414   1_556  A
C758        H765   1.084       .  S
C759        C760   1.403       .  A
C759        H766   1.084       .  S
C760        C761   1.410       .  A
C760        H767   1.083       .  S
C761        C762   1.409       .  A
C762        H768   1.084       .  S
C769        C770   1.410       .  A
C769        C774   1.408       .  A
C770        C771   1.395       .  A
C770        H779   1.083       .  S
C771        C772   1.398       .  A
C771        H780   1.084       .  S
C772        C778   1.408       .  A
C772        C773   1.416       .  A
C773        C775   1.402       .  A
C773        C774   1.413       .  A
C774        H781   1.084       .  S
C775        C776   1.400       .  A
C775        H782   1.084       .  S
C776        C777   1.408       .  A
C776        H783   1.083       .  S
C777        C778   1.403       .  A
C778        H784   1.085       .  S
C785        C786   1.406       .  A
C785        C790   1.408       .  A
C786        C787   1.395   1_554  A
C786        H795   1.083       .  S
C787        C788   1.401       .  A
C787        H796   1.084       .  S
C788        C794   1.402       .  A
C788        C789   1.413       .  A
C789        C791   1.403       .  A
C789        C790   1.404   1_556  A
C790        H797   1.084       .  S
C791        C792   1.398       .  A
C791        H798   1.084       .  S
C792        C793   1.406       .  A
C792        H799   1.083       .  S
C793        C794   1.405       .  A
C794        H800   1.084       .  S
C801        C802   1.408       .  A
C801        C806   1.404       .  A
C802        C803   1.393       .  A
C802        H811   1.083       .  S
C803        C804   1.398       .  A
C803        H812   1.084       .  S
C804        C810   1.401       .  A
C804        C805   1.415       .  A
C805        C807   1.400       .  A
C805        C806   1.402       .  A
C806        H813   1.085       .  S
C807        C808   1.395       .  A
C807        H814   1.084       .  S
C808        C809   1.408       .  A
C808        H815   1.083       .  S
C809        C810   1.401       .  A
C810        H816   1.085       .  S
C817        C818   1.406       .  A
C817        C822   1.412       .  A
C818        C819   1.401       .  A
C818        H827   1.083       .  S
C819        C820   1.405       .  A
C819        H828   1.084       .  S
C820        C826   1.407       .  A
C820        C821   1.411       .  A
C821        C823   1.406       .  A
C821        C822   1.409       .  A
C822        H829   1.084       .  S
C823        C824   1.403       .  A
C823        H830   1.084       .  S
C824        C825   1.405       .  A
C824        H831   1.082       .  S
C825        C826   1.413       .  A
C826        H832   1.085       .  S
C833        C834   1.407       .  A
C833        C838   1.408       .  A
C834        C835   1.396       .  A
C834        H843   1.083       .  S
C835        C836   1.400       .  A
C835        H844   1.084       .  S
C836        C842   1.404       .  A
C836        C837   1.414       .  A
C837        C839   1.404       .  A
C837        C838   1.408       .  A
C838        H845   1.084       .  S
C839        C840   1.401       .  A
C839        H846   1.084       .  S
C840        C841   1.405       .  A
C840        H847   1.083       .  S
C841        C842   1.407       .  A
C842        H848   1.085       .  S
C849        C850   1.404   1_455  A
C849        C854   1.406   1_455  A
C850        C851   1.402       .  A
C850        H859   1.083       .  S
C851        C852   1.405       .  A
C851        H860   1.083       .  S
C852        C858   1.410       .  A
C852        C853   1.415       .  A
C853        C855   1.402       .  A
C853        C854   1.407       .  A
C855        C856   1.398       .  A
C855        H862   1.084       .  S
C856        C857   1.403       .  A
C856        H863   1.084       .  S
C857        C858   1.406       .  A
C858        H864   1.085       .  S
C865        C866   1.404       .  A
C865        C870   1.409       .  A
C866        C867   1.397       .  A
C866        H875   1.083       .  S
C868        C874   1.401       .  A
C869        C871   1.405       .  A
C869        C870   1.405   1_456  A
C870        H877   1.084       .  S
C871        H878   1.084       .  S
C872        C873   1.405       .  A
C872        H879   1.083       .  S
C873        C874   1.409       .  A
C874        H880   1.084       .  S
C881        C882   1.412       .  A
C881        C886   1.405       .  A
C882        C883   1.397       .  A
C882        H891   1.083       .  S
C883        C884   1.399       .  A
C883        H892   1.084       .  S
C884        C890   1.412       .  A
C884        C885   1.417       .  A
C885        C887   1.399       .  A
C885        C886   1.411       .  A
C886        H893   1.084       .  S
C887        C888   1.396       .  A
C887        H894   1.084       .  S
C888        C889   1.410       .  A
C888        H895   1.083       .  S
C889        C890   1.404       .  A
C890        H896   1.084       .  S
C897        C898   1.406       .  A
C897        C902   1.409       .  A
C898        C899   1.397       .  A
C898        H907   1.083   1_545  S
C899        C900   1.402       .  A
C899        H908   1.084       .  S
C900        C906   1.404       .  A
C900        C901   1.413       .  A
C901        C903   1.404       .  A
C901        C902   1.408       .  A
C902        H909   1.084       .  S
C903        C904   1.401       .  A
C903        H910   1.084       .  S
C904        C905   1.406       .  A
C905        C906   1.409       .  A
C906        H912   1.085       .  S
C913        C914   1.405       .  A
C913        C918   1.404       .  A
C914        C915   1.401       .  A
C914        H923   1.084       .  S
C915        C916   1.404       .  A
C915        H924   1.083       .  S
C916        C922   1.411       .  A
C916        C917   1.416       .  A
C917        C919   1.400       .  A
C917        C918   1.406       .  A
C918        H925   1.085       .  S
C919        C920   1.396       .  A
C919        H926   1.084       .  S
C920        C921   1.404       .  A
C920        H927   1.084       .  S
C921        C922   1.406       .  A
C922        H928   1.084       .  S
C929        C930   1.404   1_545  A
C929        C934   1.408       .  A
C930        C931   1.397       .  A
C930        H939   1.083       .  S
C931        C932   1.403   1_554  A
C931        H940   1.084       .  S
C932        C938   1.402       .  A
C932        C933   1.413   1_565  A
C933        C935   1.403       .  A
C933        C934   1.403   1_556  A
C934        H941   1.085       .  S
C935        C936   1.398       .  A
C935        H942   1.084       .  S
C936        C937   1.406   1_545  A
C936        H943   1.083       .  S
C937        C938   1.407       .  A
C938        H944   1.084       .  S
C945        C946   1.405   1_565  A
C945        C950   1.410       .  A
C946        C947   1.401       .  A
C946        H955   1.083       .  S
C947        C948   1.405       .  A
C947        H956   1.084       .  S
C949        C951   1.404       .  A
C951        C952   1.399   1_455  A
C951        H958   1.084       .  S
C952        C953   1.404   1_565  A
C952        H959   1.083       .  S
C953        C954   1.412       .  A
C961        C962   1.407       .  A
C961        C966   1.407       .  A
C962        C963   1.393       .  A
C962        H971   1.083       .  S
C963        C964   1.398       .  A
C963        H972   1.084       .  S
C964        C970   1.401   1_554  A
C964        C965   1.415       .  A
C965        C967   1.403       .  A
C965        C966   1.407       .  A
C966        H973   1.084       .  S
C967        C968   1.399       .  A
C967        H974   1.083       .  S
C968        C969   1.405   1_554  A
C968        H975   1.084   1_554  S
C969        C970   1.402       .  A
C970        H976   1.085       .  S
C977        C978   1.405       .  A
C977        C982   1.409       .  A
C978        C979   1.397       .  A
C978        H987   1.083       .  S
C979        C980   1.403       .  A
C979        H988   1.084       .  S
C980        C986   1.400       .  A
C980        C981   1.412       .  A
C981        C983   1.404       .  A
C981        C982   1.401       .  A
C982        H989   1.084       .  S
C983        C984   1.398       .  A
C983        H990   1.084       .  S
C984        C985   1.404       .  A
C984        H991   1.083       .  S
C985        C986   1.408       .  A
C986        H992   1.084       .  S
C993        C994   1.400       .  A
C993        C998   1.405       .  A
C994        C995   1.396       .  A
C994       H1003   1.083   1_565  S
C995        C996   1.403       .  A
C995       H1004   1.084       .  S
C996       C1002   1.401       .  A
C996        C997   1.414       .  A
C997        C999   1.405       .  A
C997        C998   1.406       .  A
C998       H1005   1.085       .  S
C999       C1000   1.401       .  A
C999       H1006   1.084       .  S
C1002      H1008   1.085       .  S
C1009      C1010   1.407       .  A
C1009      C1014   1.406       .  A
C1010      C1011   1.395       .  A
C1010      H1019   1.084       .  S
C1011      C1012   1.399       .  A
C1011      H1020   1.083       .  S
C1012      C1018   1.405       .  A
C1012      C1013   1.416       .  A
C1013      C1015   1.403       .  A
C1013      C1014   1.409       .  A
C1014      H1021   1.084       .  S
C1015      C1016   1.400       .  A
C1015      H1022   1.083       .  S
C1016      C1017   1.404       .  A
C1016      H1023   1.084       .  S
C1017      C1018   1.401       .  A
C1018      H1024   1.085       .  S
C1025      C1026   1.406       .  A
C1025      C1030   1.405       .  A
C1026      C1027   1.394       .  A
C1026      H1035   1.080       .  S
C1027      C1028   1.399       .  A
C1027      H1036   1.084       .  S
C1028      C1034   1.407       .  A
C1028      C1029   1.418       .  A
C1029      C1031   1.402       .  A
C1029      C1030   1.413       .  A
C1030      H1037   1.084       .  S
C1031      C1032   1.400       .  A
C1031      H1038   1.083       .  S
C1032      C1033   1.407       .  A
C1032      H1039   1.084       .  S
C1033      C1034   1.402       .  A
C1034      H1040   1.084       .  S
C1041      C1042   1.406       .  A
C1041      C1046   1.406   1_556  A
C1042      C1043   1.395   1_556  A
C1042      H1051   1.083       .  S
C1043      C1044   1.399       .  A
C1043      H1052   1.084       .  S
C1044      C1050   1.401       .  A
C1044      C1045   1.415       .  A
C1045      C1047   1.402       .  A
C1045      C1046   1.401       .  A
C1046      H1053   1.085       .  S
C1047      C1048   1.395       .  A
C1047      H1054   1.084       .  S
C1048      C1049   1.403       .  A
C1048      H1055   1.083       .  S
C1049      C1050   1.399       .  A
C1050      H1056   1.085       .  S
C1057      C1058   1.404       .  A
C1057      C1062   1.406       .  A
C1058      C1059   1.390       .  A
C1058      H1067   1.083       .  S
C1059      C1060   1.398       .  A
C1059      H1068   1.085       .  S
C1060      C1066   1.393       .  A
C1060      C1061   1.413       .  A
C1061      C1063   1.404       .  A
C1061      C1062   1.402       .  A
C1062      H1069   1.085       .  S
C1063      C1064   1.399       .  A
C1063      H1070   1.084       .  S
C1064      C1065   1.406       .  A
C1064      H1071   1.083       .  S
C1065      C1066   1.402       .  A
C1066      H1072   1.085       .  S
C1073      C1074   1.405       .  A
C1073      C1078   1.411       .  A
C1074      C1075   1.400       .  A
C1074      H1083   1.083       .  S
C1075      C1076   1.404       .  A
C1075      H1084   1.083       .  S
C1076      C1082   1.405       .  A
C1076      C1077   1.411       .  A
C1077      C1079   1.405       .  A
C1077      C1078   1.406       .  A
C1078      H1085   1.084       .  S
C1079      C1080   1.401       .  A
C1079      H1086   1.083       .  S
C1080      C1081   1.404       .  A
C1080      H1087   1.083       .  S
C1081      C1082   1.412       .  A
C1082      H1088   1.084       .  S
C1089      C1090   1.407       .  A
C1089      C1094   1.409       .  A
C1090      C1091   1.404       .  A
C1090      H1099   1.083       .  S
C1091      C1092   1.406       .  A
C1091      H1100   1.083       .  S
C1092      C1098   1.413       .  A
C1092      C1093   1.414       .  A
C1093      C1095   1.402       .  A
C1093      C1094   1.405       .  A
C1094      H1101   1.084       .  S
C1095      C1096   1.396       .  A
C1095      H1102   1.084       .  S
C1096      C1097   1.403       .  A
C1096      H1103   1.084       .  S
C1097      C1098   1.409       .  A
C1098      H1104   1.084       .  S
C1105      C1110   1.407       .  A
C1106      C1107   1.402       .  A
C1106      H1115   1.083       .  S
C1107      C1108   1.404       .  A
C1107      H1116   1.083       .  S
C1108      C1114   1.411       .  A
C1108      C1109   1.415       .  A
C1109      C1111   1.401       .  A
C1110      H1117   1.085   1_455  S
C1111      C1112   1.396       .  A
C1111      H1118   1.084       .  S
C1112      C1113   1.404       .  A
C1112      H1119   1.084       .  S
C1113      C1114   1.406       .  A
C1114      H1120   1.084       .  S
