geometry optimzed in LAMMPS
_audit_creation_date              2020-12-01 
_audit_creation_method            'lammps2cif' 
_symmetry_space_group_name_H-M    'P1' 
_symmetry_Int_Tables_number       1 
_symmetry_cell_setting            triclinic 
loop_ 
_symmetry_equiv_pos_as_xyz 
  x,y,z 
_cell_length_a                    47.60557199 
_cell_length_b                    25.793804495239335 
_cell_length_c                    29.43580293608018 
_cell_angle_alpha                 89.58473767508272 
_cell_angle_beta                  92.94523142711594 
_cell_angle_gamma                 89.94888310300738 
loop_ 
_atom_site_label 
_atom_site_type_symbol 
_atom_site_fract_x 
_atom_site_fract_y 
_atom_site_fract_z 
_atom_site_charge 
O1          O  0.86286901  0.53937699  0.62970794    -0.85000
O2          O  0.81827259  0.60323290  0.62170819    -0.82000
C3          C  0.79482057  0.62267927  0.62930514     0.98500
O4          O  0.78678680  0.62658184  0.66982277    -0.82100
O5          O  0.77603598  0.52811960  0.70315758    -0.84700
C6          C  0.78050164  0.48255373  0.71720805     1.03000
O7          O  0.80503175  0.46841804  0.73021097    -0.77500
O8          O  0.83548149  0.47790087  0.65393580    -0.77700
C9          C  0.84868392  0.49827853  0.62256025     1.03000
O10         O  0.88399698  0.59867769  0.70831078    -0.85000
O11         O  0.83921072  0.66992113  0.69193601    -0.82000
C12         C  0.82866282  0.68096259  0.72933405     0.98500
O13         O  0.82005097  0.64534439  0.75425359    -0.82100
O14         O  0.80750555  0.54969917  0.78810564    -0.84700
C15         C  0.83013105  0.52928398  0.80498750     1.03000
O16         O  0.84985300  0.51737687  0.78026999    -0.77500
O17         O  0.88356587  0.51382664  0.70859691    -0.77600
C18         C  0.89670208  0.55608182  0.71490006     1.02900
Cr19       Cr  0.85000758  0.60029930  0.66617649     1.93700
Cr20       Cr  0.79983358  0.58588133  0.72704206     1.93200
Cr21       Cr  0.84266297  0.49881285  0.71702459     1.39100
O22         O  0.83063935  0.56193737  0.70354014    -1.22700
O23         O  0.65040054  0.93935680  0.35604508    -0.85000
O24         O  0.68146929  0.95872039  0.28203052    -0.82000
C25         C  0.70651405  0.94619669  0.29356836     0.98500
O26         O  0.71289724  0.89979028  0.30246840    -0.82100
O27         O  0.70535537  0.79920639  0.33312785    -0.84700
C28         C  0.69732724  0.80085923  0.37382732     1.03000
O29         O  0.67338092  0.81759556  0.38197974    -0.77500
O30         O  0.62525214  0.87284886  0.37591229    -0.77700
C31         C  0.63714835  0.91558725  0.38559022     1.03000
O32         O  0.60458685  0.89973835  0.29698604    -0.85000
O33         O  0.63908635  0.90860606  0.22633308    -0.82000
C34         C  0.65867047  0.89767987  0.20091219     0.98500
O35         O  0.68184964  0.87888053  0.21722053    -0.82100
O36         O  0.67240974  0.78070820  0.24797640    -0.84700
C37         C  0.66545746  0.74249521  0.27138765     1.03000
O38         O  0.65563227  0.74984678  0.31001917    -0.77500
O39         O  0.60813980  0.81493974  0.29525888    -0.77600
C40         C  0.59350111  0.85555100  0.28992142     1.02900
Cr41       Cr  0.64491369  0.92214224  0.29129741     1.93700
Cr42       Cr  0.69080740  0.84092603  0.27708466     1.93200
Cr43       Cr  0.64171005  0.81675077  0.33762725     1.39100
O44         O  0.65933362  0.85991743  0.30169683    -1.22700
O45         O  0.63233114  0.04318399  0.87366174    -0.85000
O46         O  0.67898412  0.10175598  0.88019194    -0.82000
C47         C  0.70256626  0.12001242  0.87180557     0.98500
O48         O  0.71075732  0.12109322  0.83127338    -0.82100
O49         O  0.71797370  0.02065493  0.80024886    -0.84700
C50         C  0.71187082  0.97539317  0.78754789     1.03000
O51         O  0.68704818  0.96447989  0.77350951    -0.77500
O52         O  0.65711846  0.97808567  0.84980844    -0.77700
C53         C  0.64515283  0.00051516  0.88132481     1.03000
O54         O  0.61334541  0.10498241  0.79427924    -0.85000
O55         O  0.66008442  0.17050834  0.80848469    -0.82000
C56         C  0.67013967  0.17922126  0.77006522     0.98500
O57         O  0.67816215  0.14213798  0.74672122    -0.82100
O58         O  0.68745349  0.04595008  0.71488897    -0.84700
C59         C  0.66393816  0.03058305  0.69737880     1.03000
O60         O  0.64395517  0.01888603  0.72197407    -0.77500
O61         O  0.61010359  0.02036346  0.79470490    -0.77600
C62         C  0.59873480  0.06461088  0.78891501     1.02900
Cr63       Cr  0.64719764  0.10230731  0.83600790     1.93700
Cr64       Cr  0.69638583  0.08102007  0.77520164     1.93200
Cr65       Cr  0.65047668  0.99972769  0.78608638     1.39100
O66         O  0.66486252  0.06121695  0.79897086    -1.22700
O67         O  0.82734534  0.43934352  0.15219636    -0.85000
O68         O  0.79890373  0.45198655  0.22998075    -0.82000
C69         C  0.77414588  0.43587402  0.22142569     0.98500
O70         O  0.76969410  0.38909899  0.21182457    -0.82100
O71         O  0.78088588  0.29102292  0.17956015    -0.84700
C72         C  0.78778093  0.29290021  0.13823156     1.03000
O73         O  0.81041865  0.31375673  0.12775335    -0.77500
O74         O  0.85510098  0.37797987  0.12986072    -0.77700
C75         C  0.84030069  0.41812106  0.12123617     1.03000
O76         O  0.87731423  0.40657974  0.20640842    -0.85000
O77         O  0.84572240  0.40745937  0.27975413    -0.82000
C78         C  0.82789912  0.39321798  0.30720099     0.98500
O79         O  0.80511972  0.37106442  0.29357442    -0.82100
O80         O  0.81770339  0.27567563  0.26129024    -0.84700
C81         C  0.82461950  0.23916760  0.23636297     1.03000
O82         O  0.83370522  0.24917167  0.19764414    -0.77500
O83         O  0.87811790  0.32162785  0.20915114    -0.77600
C84         C  0.89057161  0.36451380  0.21449931     1.02900
Cr85       Cr  0.83645626  0.42184987  0.21605178     1.93700
Cr86       Cr  0.79547811  0.33336320  0.23445897     1.93200
Cr87       Cr  0.84333990  0.31838927  0.16934752     1.39100
O88         O  0.82480753  0.35777489  0.20677235    -1.22700
O89         O  0.13319542  0.54819219  0.87465297    -0.85000
O90         O  0.18124770  0.60288128  0.87662853    -0.82000
C91         C  0.20528447  0.61811790  0.86711927     0.98500
O92         O  0.21283168  0.61768854  0.82619420    -0.82100
O93         O  0.21833479  0.51612792  0.79970582    -0.84700
C94         C  0.21132700  0.46987036  0.79246333     1.03000
O95         O  0.18622186  0.45856177  0.78042559    -0.77500
O96         O  0.15697987  0.48043945  0.85418071    -0.77700
C97         C  0.14527492  0.50539789  0.88423750     1.03000
O98         O  0.11440830  0.60501514  0.79318885    -0.85000
O99         O  0.16231178  0.66806469  0.80278367    -0.82000
C100        C  0.17223911  0.67436507  0.76403270     0.98500
O101        O  0.17943418  0.63576453  0.74167803    -0.82100
O102        O  0.18671699  0.53580037  0.71444068    -0.84700
C103        C  0.16316338  0.51740920  0.69977686     1.03000
O104        O  0.14346821  0.50987559  0.72573244    -0.77500
O105        O  0.11029237  0.52052315  0.79719187    -0.77600
C106        C  0.09945139  0.56484642  0.78916907     1.02900
Cr107      Cr  0.14880507  0.60303435  0.83375945     1.93700
Cr108      Cr  0.19697650  0.57521637  0.77239326     1.93200
Cr109      Cr  0.15026741  0.49685710  0.79011046     1.39100
O110        O  0.16547638  0.55860374  0.79836567    -1.22700
O111        O  0.33299704  0.93708264  0.14283614    -0.85000
O112        O  0.29920841  0.95936255  0.21275960    -0.82000
C113        C  0.27482630  0.94430786  0.20026886     0.98500
O114        O  0.26987446  0.89693839  0.19389422    -0.82100
O115        O  0.28115755  0.79474795  0.17232520    -0.84700
C116        C  0.29089473  0.79116562  0.13294768     1.03000
O117        O  0.31487801  0.80832262  0.12520118    -0.77500
O118        O  0.36024986  0.87100792  0.12977982    -0.77700
C119        C  0.34729999  0.91157702  0.11600064     1.03000
O120        O  0.37803539  0.90770843  0.20771482    -0.85000
O121        O  0.34097457  0.91796844  0.27508915    -0.82000
C122        C  0.32080507  0.90645115  0.29934726     0.98500
O123        O  0.29875364  0.88466511  0.28237567    -0.82100
O124        O  0.31147744  0.78556549  0.26049041    -0.84700
C125        C  0.32069520  0.74641961  0.24108386     1.03000
O126        O  0.33295724  0.75172189  0.20422314    -0.77500
O127        O  0.37768920  0.82319193  0.21597468    -0.77600
C128        C  0.39061925  0.86583221  0.21883059     1.02900
Cr129      Cr  0.33693382  0.92568887  0.20889411     1.93700
Cr130      Cr  0.29275900  0.84187485  0.22535700     1.93200
Cr131      Cr  0.34510267  0.81689826  0.17174887     1.39100
O132        O  0.32472257  0.86134200  0.20219400    -1.22700
O133        O  0.15093388  0.43942008  0.35292972    -0.85000
O134        O  0.17902061  0.45951929  0.27712903    -0.82000
C135        C  0.20414789  0.44947316  0.29006087     0.98500
O136        O  0.21160061  0.40363859  0.29916180    -0.82100
O137        O  0.20722489  0.30179487  0.32726093    -0.84700
C138        C  0.19997887  0.30003994  0.36823961     1.03000
O139        O  0.17582911  0.31414868  0.37839422    -0.77500
O140        O  0.12830086  0.37124802  0.37664336    -0.77700
C141        C  0.14012779  0.41464877  0.38436782     1.03000
O142        O  0.10388909  0.39846423  0.29934769    -0.85000
O143        O  0.13614225  0.40597321  0.22564977    -0.82000
C144        C  0.15592772  0.39840509  0.19986693     0.98500
O145        O  0.17977739  0.38173442  0.21508194    -0.82100
O146        O  0.17379395  0.28186898  0.24404736    -0.84700
C147        C  0.16596895  0.24357210  0.26672212     1.03000
O148        O  0.15574445  0.25026238  0.30516811    -0.77500
O149        O  0.10801461  0.31419911  0.29604657    -0.77600
C150        C  0.09299093  0.35439352  0.29188236     1.02900
Cr151      Cr  0.14357779  0.42121287  0.28956680     1.93700
Cr152      Cr  0.19072346  0.34343765  0.27338558     1.93200
Cr153      Cr  0.14290921  0.31553974  0.33594937     1.39100
O154        O  0.15925412  0.35974694  0.29947068    -1.22700
O155        O  0.36614302  0.04801076  0.62822939    -0.85000
O156        O  0.32012084  0.11046890  0.62060720    -0.82000
C157        C  0.29601648  0.12730935  0.62818863     0.98500
O158        O  0.28631555  0.12341745  0.66750424    -0.82100
O159        O  0.27604928  0.02105116  0.69017734    -0.84700
C160        C  0.28144648  0.97399821  0.69815872     1.03000
O161        O  0.30563007  0.96011615  0.71301481    -0.77500
O162        O  0.33984664  0.98125275  0.64371469    -0.77700
C163        C  0.35334012  0.00705937  0.61571801     1.03000
O164        O  0.38269593  0.09842434  0.71326632    -0.85000
O165        O  0.33740306  0.16796288  0.69919621    -0.82000
C166        C  0.32505849  0.17357345  0.73593661     0.98500
O167        O  0.31528060  0.13480620  0.75567246    -0.82100
O168        O  0.30312912  0.03592650  0.77950489    -0.84700
C169        C  0.32528017  0.01610863  0.79824158     1.03000
O170        O  0.34603865  0.00462870  0.77533805    -0.77500
O171        O  0.38387243  0.01372516  0.70875931    -0.77600
C172        C  0.39585128  0.05619074  0.71894751     1.02900
Cr173      Cr  0.35026540  0.10283087  0.66823253     1.93700
Cr174      Cr  0.29768484  0.07734405  0.72137001     1.93200
Cr175      Cr  0.34299806  0.99472649  0.70931689     1.39100
O176        O  0.33015381  0.05849375  0.69980474    -1.22700
C177        C  0.25269264  0.23314029  0.45316379     0.16300
C178        C  0.27430555  0.20379862  0.47505898    -0.32700
C179        C  0.27130540  0.18999290  0.52086045     0.20700
C180        C  0.24805634  0.20516473  0.54399654     0.02900
C181        C  0.22672137  0.23501911  0.52235108    -0.22500
C182        C  0.22957297  0.24831859  0.47657703     0.12100
S183        S  0.25108060  0.25102090  0.39684978    -0.06100
C184        C  0.21879210  0.27869128  0.40511986    -0.09600
C185        C  0.21029858  0.27476590  0.44942679    -0.26200
S186        S  0.24808521  0.18404267  0.59914209    -0.03400
C187        C  0.27980215  0.15431240  0.59116414    -0.16800
C188        C  0.28963812  0.16080334  0.54782048    -0.14800
H189        H  0.29236698  0.19143060  0.45700247     0.20500
H190        H  0.20842444  0.24662966  0.54018741     0.16600
H191        H  0.19043556  0.28884549  0.46089203     0.19100
H192        H  0.30928359  0.14531391  0.53673175     0.12400
C193        C  0.29644126  0.60678323  0.26238599     0.16300
C194        C  0.28807437  0.55476376  0.25692168    -0.32700
C195        C  0.26329593  0.53889580  0.27723655     0.20700
C196        C  0.24780277  0.57321927  0.30204962     0.02900
C197        C  0.25683946  0.62415103  0.30916334    -0.22500
C198        C  0.28131864  0.64002170  0.28870263     0.12100
S199        S  0.32265006  0.63694825  0.23416317    -0.06100
C200        C  0.31288854  0.69468921  0.25827212    -0.09600
C201        C  0.29111109  0.68969396  0.28752082    -0.26200
S202        S  0.21658335  0.54943510  0.31895383    -0.03400
C203        C  0.22459974  0.49198299  0.29345644    -0.16800
C204        C  0.25022735  0.49150445  0.27292544    -0.14800
H205        H  0.29944484  0.52868918  0.23579670     0.20500
H206        H  0.24444713  0.65115851  0.32779633     0.16600
H207        H  0.28094270  0.72185342  0.30353695     0.19100
H208        H  0.25803763  0.45930586  0.25380036     0.12400
C209        C  0.22672183  0.06276870  0.18820568     0.16300
C210        C  0.21658374  0.11332716  0.18074914    -0.32700
C211        C  0.19715856  0.13259372  0.21072916     0.20700
C212        C  0.18762055  0.10251233  0.24594684     0.02900
C213        C  0.19696715  0.05113926  0.25236330    -0.22500
C214        C  0.21695864  0.03223189  0.22300639     0.12100
S215        S  0.25392466  0.03600165  0.16070481    -0.06100
C216        C  0.25204983  0.98286205  0.19608118    -0.09600
C217        C  0.23118516  0.98586917  0.22721767    -0.26200
S218        S  0.16727108  0.13567055  0.28238647    -0.03400
C219        C  0.17206870  0.19086092  0.25024626    -0.16800
C220        C  0.18792837  0.18285675  0.21255978    -0.14800
H221        H  0.22485745  0.13776151  0.15454924     0.20500
H222        H  0.19030323  0.02805315  0.28070628     0.16600
H223        H  0.22820763  0.95761419  0.25392729     0.19100
H224        H  0.19443594  0.21326573  0.18983933     0.12400
C225        C  0.35578683  0.98284302  0.48789284     0.16300
C226        C  0.36077287  0.98407433  0.44144397    -0.32700
C227        C  0.34257526  0.95562405  0.41213291     0.20700
C228        C  0.32018283  0.92770541  0.42806105     0.02900
C229        C  0.31532564  0.92617117  0.47454074    -0.22500
C230        C  0.33376040  0.95400125  0.50392334     0.12100
S231        S  0.37468079  0.01639366  0.52892941    -0.06100
C232        C  0.35284973  0.99063914  0.56808204    -0.09600
C233        C  0.33220836  0.95780771  0.54996799    -0.26200
S234        S  0.30046368  0.89604967  0.38679484    -0.03400
C235        C  0.32307855  0.91970385  0.34786169    -0.16800
C236        C  0.34435920  0.95110578  0.36616663    -0.14800
H237        H  0.37801042  0.00627332  0.42869709     0.20500
H238        H  0.29796930  0.90426831  0.48725486     0.16600
H239        H  0.31611127  0.93950643  0.56923207     0.19100
H240        H  0.36047284  0.96929952  0.34688036     0.12400
C241        C  0.32319376  0.00029167  0.92749329     0.16300
C242        C  0.31795337  0.00347030  0.97377154    -0.32700
C243        C  0.33352812  0.97078953  0.00389803     0.20700
C244        C  0.35334959  0.93639000  0.98876435     0.02900
C245        C  0.35890052  0.93383502  0.94266336    -0.22500
C246        C  0.34342458  0.96657736  0.91260088     0.12100
S247        S  0.30604646  0.03536103  0.88506734    -0.06100
C248        C  0.32682215  0.00484139  0.84719157    -0.09600
C249        C  0.34572982  0.96930744  0.86663932    -0.26200
S250        S  0.36869440  0.89767559  0.03023874    -0.03400
C251        C  0.34832033  0.92843627  0.06845608    -0.16800
C252        C  0.33076215  0.96676051  0.04975665    -0.14800
H253        H  0.30220686  0.02966741  0.98568357     0.20500
H254        H  0.37431161  0.90701279  0.93065740     0.16600
H255        H  0.36027961  0.94639022  0.84802824     0.19100
H256        H  0.31596259  0.98904416  0.06842561     0.12400
C257        C  0.25410980  0.68740756  0.95537196     0.16300
C258        C  0.27400181  0.71869855  0.97876454    -0.32700
C259        C  0.26936281  0.73061396  0.02431155     0.20700
C260        C  0.24618917  0.71204785  0.04595103     0.02900
C261        C  0.22654636  0.68024148  0.02278516    -0.22500
C262        C  0.23108665  0.66861678  0.97724393     0.12100
S263        S  0.25446779  0.67132412  0.89888147    -0.06100
C264        C  0.22309020  0.63944652  0.90498310    -0.09600
C265        C  0.21356145  0.64065835  0.94880594    -0.26200
S266        S  0.24441878  0.73123108  0.10135494    -0.03400
C267        C  0.27537186  0.76441744  0.09537258    -0.16800
C268        C  0.28609980  0.76066502  0.05245455    -0.14800
H269        H  0.29203513  0.73383887  0.96203489     0.20500
H270        H  0.20827929  0.66576509  0.03930564     0.16600
H271        H  0.19397618  0.62385872  0.95899224     0.19100
H272        H  0.30548561  0.77843172  0.04249817     0.12400
C273        C  0.16027618  0.44225324  0.99947356     0.16300
C274        C  0.17181382  0.41408416  0.03655515    -0.32700
C275        C  0.15977563  0.42107358  0.07829647     0.20700
C276        C  0.13706364  0.45412155  0.08276312     0.02900
C277        C  0.12582543  0.48296056  0.04583180    -0.22500
C278        C  0.13807593  0.47641689  0.00418526     0.12100
S279        S  0.17187102  0.43880112  0.94613877    -0.06100
C280        C  0.14688345  0.48458375  0.93026863    -0.09600
C281        C  0.13041653  0.50144217  0.96444270    -0.26200
S282        S  0.12507533  0.45656871  0.13592986    -0.03400
C283        C  0.15138288  0.41356904  0.15242607    -0.16800
C284        C  0.16832592  0.39789139  0.11846104    -0.14800
H285        H  0.18937877  0.38805219  0.03304220     0.20500
H286        H  0.10840893  0.50930362  0.04942451     0.16600
H287        H  0.11394024  0.53028244  0.96044388     0.19100
H288        H  0.18589811  0.37138772  0.12297613     0.12400
C289        C  0.14168395  0.46014255  0.58476121     0.16300
C290        C  0.12916553  0.43147876  0.54911426    -0.32700
C291        C  0.13797676  0.44165239  0.50545385     0.20700
C292        C  0.15807531  0.47919342  0.49762887     0.02900
C293        C  0.17079919  0.50753171  0.53337098    -0.22500
C294        C  0.16227739  0.49683897  0.57716404     0.12100
S295        S  0.13351067  0.45376241  0.63982120    -0.06100
C296        C  0.15837509  0.50051406  0.65291558    -0.09600
C297        C  0.17228637  0.51989015  0.61647943    -0.26200
S298        S  0.16609128  0.48558961  0.44240854    -0.03400
C299        C  0.14257873  0.43636578  0.42994286    -0.16800
C300        C  0.12902508  0.41661961  0.46660695    -0.14800
H301        H  0.11339265  0.40239466  0.55519024     0.20500
H302        H  0.18674210  0.53630367  0.52733872     0.16600
H303        H  0.18831345  0.54964514  0.61854793     0.19100
H304        H  0.11402464  0.38508264  0.46507655     0.12400
C305        C  0.19432965  0.81480353  0.74137815     0.16300
C306        C  0.20288506  0.86661110  0.74651562    -0.32700
C307        C  0.22384269  0.88500244  0.71856939     0.20700
C308        C  0.23547773  0.85340810  0.68652586     0.02900
C309        C  0.22614991  0.80236298  0.68020334    -0.22500
C310        C  0.20555347  0.78380718  0.70856592     0.12100
S311        S  0.17270385  0.78248683  0.77671663    -0.06100
C312        C  0.17899487  0.72662800  0.74702116    -0.09600
C313        C  0.19642288  0.73363896  0.71107697    -0.26200
S314        S  0.26356109  0.87994319  0.66099090    -0.03400
C315        C  0.25936627  0.93450473  0.69323887    -0.16800
C316        C  0.23722006  0.93207184  0.72198287    -0.14800
H317        H  0.19477405  0.89059274  0.77291129     0.20500
H318        H  0.23575226  0.77718310  0.65608613     0.16600
H319        H  0.20397902  0.70265767  0.69020895     0.19100
H320        H  0.23272084  0.96136581  0.74676872     0.12400
C321        C  0.30227141  0.31357433  0.75735592     0.16300
C322        C  0.29313766  0.36508921  0.75099190    -0.32700
C323        C  0.27034743  0.38183028  0.77578216     0.20700
C324        C  0.25764376  0.34906036  0.80615421     0.02900
C325        C  0.26767044  0.29864970  0.81412284    -0.22500
C326        C  0.28995798  0.28162412  0.78871581     0.12100
S327        S  0.32564392  0.28231147  0.72451526    -0.06100
C328        C  0.31840086  0.22561650  0.75314003    -0.09600
C329        C  0.29960846  0.23177543  0.78722719    -0.26200
S330        S  0.22779451  0.37339107  0.82780573    -0.03400
C331        C  0.23260120  0.42864292  0.79619529    -0.16800
C332        C  0.25630820  0.42823841  0.77066866    -0.14800
H333        H  0.30213031  0.38988431  0.72571159     0.20500
H334        H  0.25730153  0.27261851  0.83691391     0.16600
H335        H  0.29123317  0.20027145  0.80693568     0.19100
H336        H  0.26184357  0.45880981  0.74736303     0.12400
C337        C  0.96795734  0.38969696  0.25141040     0.16300
C338        C  0.99404397  0.41163966  0.26437861    -0.32700
C339        C  0.01746885  0.37860041  0.26821208     0.20700
C340        C  0.01507565  0.32591989  0.25984664     0.02900
C341        C  0.98890264  0.30387438  0.24714886    -0.22500
C342        C  0.96544895  0.33700803  0.24307847     0.12100
S343        S  0.93728343  0.42362862  0.24344652    -0.06100
C344        C  0.92075909  0.36633391  0.22856978    -0.09600
C345        C  0.93832403  0.32327328  0.23023300    -0.26200
S346        S  0.04617017  0.29266138  0.26618571    -0.03400
C347        C  0.06254917  0.35040171  0.28016671    -0.16800
C348        C  0.04460629  0.39285583  0.27980483    -0.14800
H349        H  0.99604572  0.45281647  0.27078495     0.20500
H350        H  0.98694352  0.26277553  0.24039388     0.16600
H351        H  0.93170853  0.28421063  0.22173057     0.19100
H352        H  0.05107210  0.43216570  0.28773158     0.12400
C353        C  0.52040093  0.09464364  0.76166041     0.16300
C354        C  0.49407141  0.11719510  0.75028613    -0.32700
C355        C  0.47045039  0.08448938  0.74818950     0.20700
C356        C  0.47298787  0.03182727  0.75740421     0.02900
C357        C  0.49919159  0.00947159  0.76923580    -0.22500
C358        C  0.52277641  0.04196159  0.77079297     0.12100
S359        S  0.55174476  0.12710712  0.76507250    -0.06100
C360        C  0.56817111  0.06894586  0.77859725    -0.09600
C361        C  0.55007496  0.02700305  0.78042571    -0.26200
S362        S  0.44231101  0.99808043  0.75079356    -0.03400
C363        C  0.42569258  0.05532033  0.73511255    -0.16800
C364        C  0.44321234  0.09836199  0.73575657    -0.14800
H365        H  0.49214773  0.15824949  0.74269283     0.20500
H366        H  0.50118545  0.96825488  0.77607376     0.16600
H367        H  0.55653359  0.98761077  0.78867733     0.19100
H368        H  0.43659684  0.13724722  0.72601425     0.12400
C369        C  0.74851807  0.19430866  0.96018840     0.16300
C370        C  0.76799416  0.22632955  0.98342749    -0.32700
C371        C  0.76366815  0.23696461  0.02920862     0.20700
C372        C  0.74110210  0.21673810  0.05136066     0.02900
C373        C  0.72150317  0.18477473  0.02803102    -0.22500
C374        C  0.72584994  0.17411312  0.98212916     0.12100
S375        S  0.74956210  0.17785991  0.90401437    -0.06100
C376        C  0.71902310  0.14351268  0.91005955    -0.09600
C377        C  0.70898536  0.14475943  0.95361330    -0.26200
S378        S  0.74051724  0.23330912  0.10772240    -0.03400
C379        C  0.77101584  0.26782294  0.10102686    -0.16800
C380        C  0.78063822  0.26641220  0.05728311    -0.14800
H381        H  0.78576716  0.24233715  0.96657145     0.20500
H382        H  0.70371918  0.16879543  0.04487371     0.16600
H383        H  0.68976043  0.12641306  0.96359785     0.19100
H384        H  0.79970125  0.28486811  0.04672341     0.12400
C385        C  0.46853677  0.89140030  0.25074354     0.16300
C386        C  0.49493976  0.91362500  0.26081350    -0.32700
C387        C  0.51815383  0.88025692  0.26587649     0.20700
C388        C  0.51527844  0.82703841  0.26129000     0.02900
C389        C  0.48879525  0.80473847  0.25138157    -0.22500
C390        C  0.46552409  0.83817695  0.24625536     0.12100
S391        S  0.43802546  0.92555075  0.24209537    -0.06100
C392        C  0.42083337  0.86758485  0.23245886    -0.09600
C393        C  0.43810339  0.82419650  0.23595015    -0.26200
S394        S  0.54616528  0.79341210  0.26884932    -0.03400
C395        C  0.56309005  0.85174510  0.27820365    -0.16800
C396        C  0.54548633  0.89464497  0.27553533    -0.14800
H397        H  0.49731137  0.95518469  0.26428266     0.20500
H398        H  0.48644895  0.76320927  0.24767527     0.16600
H399        H  0.43109078  0.78473665  0.23027822     0.19100
H400        H  0.55229271  0.93430742  0.28077755     0.12400
C401        C  0.71579357  0.52823683  0.25533557     0.16300
C402        C  0.69768096  0.55911299  0.28017161    -0.32700
C403        C  0.68902933  0.60713902  0.26116026     0.20700
C404        C  0.69716524  0.62236597  0.21851453     0.02900
C405        C  0.71493322  0.59136695  0.19359611    -0.22500
C406        C  0.72453555  0.54465935  0.21337016     0.12100
S407        S  0.73136108  0.47180180  0.27452942    -0.06100
C408        C  0.75038151  0.47151061  0.22623457    -0.09600
C409        C  0.74453381  0.51250720  0.19668824    -0.26200
S410        S  0.68695863  0.68340989  0.20277808    -0.03400
C411        C  0.67246649  0.69017621  0.25491911    -0.16800
C412        C  0.67461466  0.64591847  0.28224392    -0.14800
H413        H  0.69184541  0.54749552  0.31382463     0.20500
H414        H  0.72224463  0.60453516  0.16125789     0.16600
H415        H  0.75525302  0.51961644  0.16568377     0.19100
H416        H  0.66815528  0.64372796  0.31694696     0.12400
C417        C  0.75650841  0.06212827  0.30435141     0.16300
C418        C  0.76932663  0.10970724  0.31476814    -0.32700
C419        C  0.78940428  0.12833364  0.28549080     0.20700
C420        C  0.79672436  0.10075969  0.24763809     0.02900
C421        C  0.78456381  0.05217207  0.23800889    -0.22500
C422        C  0.76419960  0.03372368  0.26711765     0.12100
S423        S  0.72927872  0.03619249  0.33260295    -0.06100
C424        C  0.72851918  0.98606922  0.29441151    -0.09600
C425        C  0.74836388  0.98949737  0.26160774    -0.26200
S426        S  0.81837334  0.13401356  0.21289751    -0.03400
C427        C  0.81726475  0.18573309  0.24965505    -0.16800
C428        C  0.80156669  0.17633987  0.28733136    -0.14800
H429        H  0.76291655  0.13247394  0.34321536     0.20500
H430        H  0.78970054  0.03091173  0.20796057     0.16600
H431        H  0.75013360  0.96240704  0.23396426     0.19100
H432        H  0.79699011  0.20507123  0.31257501     0.12400
C433        C  0.63666003  0.94062342  0.07938412     0.16300
C434        C  0.62297975  0.96295793  0.04077276    -0.32700
C435        C  0.63711712  0.96265150  0.00025482     0.20700
C436        C  0.66342854  0.93990056  0.99803867     0.02900
C437        C  0.67716227  0.91762883  0.03675455    -0.22500
C438        C  0.66325341  0.91892898  0.07759077     0.12100
S439        S  0.62333760  0.93916741  0.13183842    -0.06100
C440        C  0.65406124  0.90967743  0.15210729    -0.09600
C441        C  0.67346145  0.90111700  0.11940080    -0.26200
S442        S  0.67714495  0.94384987  0.94579468    -0.03400
C443        C  0.64748007  0.97774308  0.92715640    -0.16800
C444        C  0.62792022  0.98492188  0.95970557    -0.14800
H445        H  0.60245572  0.98067450  0.04247456     0.20500
H446        H  0.69793471  0.90085116  0.03526227     0.16600
H447        H  0.69396145  0.88362148  0.12593852     0.19100
H448        H  0.60830449  0.00581168  0.95416381     0.12400
C449        C  0.62882369  0.95746425  0.50856083     0.16300
C450        C  0.62136751  0.96286845  0.55364268    -0.32700
C451        C  0.63966824  0.99090165  0.58306279     0.20700
C452        C  0.66416413  0.01305569  0.56837201     0.02900
C453        C  0.67118397  0.00898202  0.52295452    -0.22500
C454        C  0.65300132  0.98058950  0.49361097     0.12100
S455        S  0.61100016  0.92059125  0.46865405    -0.06100
C456        C  0.63622195  0.93722192  0.43137123    -0.09600
C457        C  0.65712004  0.96970067  0.44911724    -0.26200
S458        S  0.68478127  0.04143937  0.61040143    -0.03400
C459        C  0.66009404  0.02313199  0.64807921    -0.16800
C460        C  0.63702890  0.99722867  0.62863578    -0.14800
H461        H  0.60269515  0.94449765  0.56565819     0.20500
H462        H  0.69042235  0.02564092  0.51136770     0.16600
H463        H  0.67506569  0.98272044  0.43098381     0.19100
H464        H  0.61981321  0.98183303  0.64721547     0.12400
C465        C  0.97500169  0.53026865  0.74449599     0.16300
C466        C  0.00155299  0.50784899  0.75315655    -0.32700
C467        C  0.02441210  0.54117557  0.76158468     0.20700
C468        C  0.02108490  0.59458267  0.76143894     0.02900
C469        C  0.99441994  0.61709609  0.75290538    -0.22500
C470        C  0.97147492  0.58365274  0.74439675     0.12100
S471        S  0.94487428  0.49618089  0.73287126    -0.06100
C472        C  0.92709468  0.55432536  0.72757710    -0.09600
C473        C  0.94392113  0.59777058  0.73476678    -0.26200
S474        S  0.05169447  0.62802474  0.77239564    -0.03400
C475        C  0.06903823  0.56931534  0.77739684    -0.16800
C476        C  0.05178621  0.52649055  0.77074177    -0.14800
H477        H  0.00429280  0.46615474  0.75317752     0.20500
H478        H  0.99169776  0.65878508  0.75275266     0.16600
H479        H  0.93646848  0.63743318  0.73260690     0.19100
H480        H  0.05888661  0.48658798  0.77268886     0.12400
C481        C  0.72838071  0.75208118  0.48853475     0.16300
C482        C  0.73306464  0.74067185  0.53497868    -0.32700
C483        C  0.75093992  0.69909328  0.54700770     0.20700
C484        C  0.76350091  0.67020062  0.51401660     0.02900
C485        C  0.75868221  0.68142620  0.46751231    -0.22500
C486        C  0.74091705  0.72323351  0.45549173     0.12100
S487        S  0.70666476  0.79973914  0.46745877    -0.06100
C488        C  0.71431374  0.78078565  0.41331953    -0.09600
C489        C  0.73309577  0.73978714  0.41204105    -0.26200
S490        S  0.78567322  0.62326305  0.53533295    -0.03400
C491        C  0.77817732  0.64278494  0.58940880    -0.16800
C492        C  0.75905920  0.68322751  0.59048598    -0.14800
H493        H  0.72324159  0.76337619  0.56063450     0.20500
H494        H  0.76854983  0.65881232  0.44187014     0.16600
H495        H  0.73938563  0.72131123  0.38124588     0.19100
H496        H  0.75268485  0.70182810  0.62120519     0.12400
C497        C  0.85168888  0.44307275  0.42429716     0.16300
C498        C  0.86475452  0.47019462  0.46044552    -0.32700
C499        C  0.85369473  0.46414851  0.50317681     0.20700
C500        C  0.83097034  0.43177259  0.50975529     0.02900
C501        C  0.81782135  0.40475118  0.47349788    -0.22500
C502        C  0.82857061  0.41153441  0.43051836     0.13700
S503        S  0.86156610  0.44681043  0.36991783    -0.06100
C504        C  0.83390843  0.40626128  0.35497153    -0.09600
C505        C  0.81809252  0.39029452  0.39059267    -0.26200
S506        S  0.82037461  0.43033395  0.56397545    -0.03400
C507        C  0.84645981  0.47462719  0.57761896    -0.16800
C508        C  0.86265112  0.48916833  0.54205931    -0.14800
H509        H  0.88242552  0.49552314  0.45531949     0.20500
H510        H  0.79976094  0.38030301  0.47843965     0.16600
H511        H  0.79987782  0.36525102  0.38738522     0.19100
H512        H  0.87952180  0.51726216  0.54428876     0.12400
C513        C  0.84746423  0.47344043  0.92295282     0.16300
C514        C  0.85911659  0.44530986  0.95995196    -0.32700
C515        C  0.84636178  0.45010485  0.00130454     0.20700
C516        C  0.82305457  0.48166073  0.00575690     0.02900
C517        C  0.81108173  0.50931327  0.96841316    -0.22500
C518        C  0.82384715  0.50437954  0.92682284     0.12100
S519        S  0.86034457  0.47273178  0.87046128    -0.06100
C520        C  0.83348873  0.51416433  0.85292523    -0.09600
C521        C  0.81547638  0.52776671  0.88632684    -0.26200
S522        S  0.81106843  0.48274296  0.05922241    -0.03400
C523        C  0.83760868  0.43988477  0.07529432    -0.16800
C524        C  0.85469938  0.42564459  0.04101865    -0.14800
H525        H  0.87737142  0.42087461  0.95665541     0.20500
H526        H  0.79275618  0.53358553  0.97166771     0.16600
H527        H  0.79735948  0.55292156  0.88123566     0.19100
H528        H  0.87218220  0.39885760  0.04492361     0.12400
C529        C  0.79977429  0.81873650  0.73609010     0.16300
C530        C  0.78569792  0.86525786  0.72447853    -0.32700
C531        C  0.76739992  0.88568877  0.75586309     0.20700
C532        C  0.76370848  0.86146009  0.79735665     0.02900
C533        C  0.77817705  0.81557458  0.80927047    -0.22500
C534        C  0.79600362  0.79463093  0.77755825     0.12100
S535        S  0.81953425  0.78359414  0.70022241    -0.06100
C536        C  0.82195362  0.73510582  0.74092582    -0.09600
C537        C  0.80902934  0.74723814  0.78079293    -0.26200
S538        S  0.73918527  0.89028389  0.82944942    -0.03400
C539        C  0.73389335  0.93549907  0.78665462    -0.16800
C540        C  0.75030586  0.92838647  0.74958264    -0.14800
H541        H  0.78790792  0.88344896  0.69157784     0.20500
H542        H  0.77470675  0.79576230  0.84107143     0.16600
H543        H  0.80689300  0.72059151  0.80903311     0.19100
H544        H  0.74912353  0.95226927  0.71912419     0.12400
C545        C  0.70036770  0.30056407  0.71628477     0.16300
C546        C  0.71746609  0.33210585  0.69021891    -0.32700
C547        C  0.72915666  0.37656020  0.71073304     0.20700
C548        C  0.72324729  0.38998168  0.75479669     0.02900
C549        C  0.70579015  0.35876387  0.78066932    -0.22500
C550        C  0.69486033  0.31326836  0.76065879     0.12100
S551        S  0.68803725  0.24134344  0.69970854    -0.06100
C552        C  0.67623080  0.23213840  0.75366459    -0.09600
C553        C  0.68067931  0.27434601  0.78219882    -0.26200
S554        S  0.74107033  0.44331471  0.77471214    -0.03400
C555        C  0.75689531  0.44707101  0.72349027    -0.16800
C556        C  0.74859608  0.40913209  0.69260015    -0.14800
H557        H  0.72266665  0.32094449  0.65625991     0.20500
H558        H  0.70211286  0.36812002  0.81567501     0.16600
H559        H  0.67634207  0.27451845  0.81795672     0.19100
H560        H  0.75723104  0.40431347  0.65956177     0.12400
loop_ 
_geom_bond_atom_site_label_1 
_geom_bond_atom_site_label_2 
_geom_bond_distance 
_geom_bond_site_symmetry_2 
_ccdc_geom_bond_type 
O1          Cr19   2.022       .  S
O1            C9   1.270       .  A
O2          Cr19   1.948       .  S
O2            C3   1.255       .  A
C3            O4   1.276       .  A
C3          C491   1.473       .  S
O4          Cr20   2.047       .  S
O5          Cr20   1.983       .  S
O5            C6   1.257       .  A
C6            O7   1.263       .  A
C6          C555   1.468       .  S
O7          Cr21   2.011       .  S
O8          Cr21   1.951       .  S
O8            C9   1.256       .  A
C9          C507   1.460       .  S
O10         Cr19   1.988       .  S
O10          C18   1.263       .  A
O11         Cr19   2.030       .  S
O11          C12   1.267       .  A
C12          O13   1.254       .  A
C12         C536   1.479       .  S
O13         Cr20   1.965       .  S
O14         Cr20   2.035       .  S
O14          C15   1.275       .  A
C15          O16   1.256       .  A
C15         C520   1.462       .  S
O16         Cr21   1.939       .  S
O17         Cr21   2.013       .  S
O17          C18   1.267       .  A
C18         C472   1.476       .  S
Cr19         O22   1.769       .  S
Cr20         O22   1.766       .  S
Cr21         O22   1.761       .  S
O23         Cr41   1.964       .  S
O23          C31   1.257       .  A
O24         Cr41   2.010       .  S
O24          C25   1.264       .  A
C25          O26   1.257       .  A
C25         C424   1.468       .  S
O26         Cr42   1.977       .  S
O27         Cr42   2.053       .  S
O27          C28   1.277       .  A
C28          O29   1.254       .  A
C28         C488   1.472       .  S
O29         Cr43   1.943       .  S
O30         Cr43   2.022       .  S
O30          C31   1.267       .  A
C31         C456   1.465       .  S
O32         Cr41   2.020       .  S
O32          C40   1.270       .  A
O33         Cr41   1.952       .  S
O33          C34   1.258       .  A
C34          O35   1.275       .  A
C34         C440   1.473       .  S
O35         Cr42   2.035       .  S
O36         Cr42   1.964       .  S
O36          C37   1.253       .  A
C37          O38   1.267       .  A
C37         C411   1.481       .  S
O38         Cr43   2.037       .  S
O39         Cr43   1.977       .  S
O39          C40   1.262       .  A
C40         C395   1.474       .  S
Cr41         O44   1.764       .  S
Cr42         O44   1.768       .  S
Cr43         O44   1.771       .  S
O45         Cr63   2.028       .  S
O45          C53   1.271       .  A
O46         Cr63   1.944       .  S
O46          C47   1.253       .  A
C47          O48   1.274       .  A
C47         C376   1.473       .  S
O48         Cr64   2.042       .  S
O49         Cr64   1.982       .  S
O49          C50   1.258   1_545  A
C50          O51   1.264       .  A
C50         C539   1.470       .  S
O51         Cr65   2.016       .  S
O52         Cr65   1.963       .  S
O52          C53   1.258   1_565  A
C53         C443   1.466   1_545  S
O54         Cr63   1.976       .  S
O54          C62   1.259       .  A
O55         Cr63   2.040       .  S
O55          C56   1.269       .  A
C56          O57   1.253       .  A
C56         C552   1.478       .  S
O57         Cr64   1.961       .  S
O58         Cr64   2.024       .  S
O58          C59   1.273       .  A
C59          O60   1.260       .  A
C59         C459   1.467       .  S
O60         Cr65   1.957   1_545  S
O61         Cr65   2.023   1_545  S
O61          C62   1.269       .  A
C62         C360   1.475       .  S
Cr63         O66   1.769       .  S
Cr64         O66   1.763       .  S
Cr65         O66   1.764   1_565  S
O67         Cr85   1.957       .  S
O67          C75   1.255       .  A
O68         Cr85   2.011       .  S
O68          C69   1.264       .  A
C69          O70   1.257       .  A
C69         C408   1.470       .  S
O70         Cr86   1.979       .  S
O71         Cr86   2.049       .  S
O71          C72   1.277       .  A
C72          O73   1.256       .  A
C72         C379   1.475       .  S
O73         Cr87   1.943       .  S
O74         Cr87   2.017       .  S
O74          C75   1.269       .  A
C75         C523   1.460       .  S
O76         Cr85   2.019       .  S
O76          C84   1.270       .  A
O77         Cr85   1.937       .  S
O77          C78   1.255       .  A
C78          O79   1.274       .  A
C78         C504   1.462       .  S
O79         Cr86   2.032       .  S
O80         Cr86   1.963       .  S
O80          C81   1.252       .  A
C81          O82   1.265       .  A
C81         C427   1.477       .  S
O82         Cr87   2.028       .  S
O83         Cr87   1.981       .  S
O83          C84   1.263       .  A
C84         C344   1.476       .  S
Cr85         O88   1.762       .  S
Cr86         O88   1.767       .  S
Cr87         O88   1.772       .  S
O89        Cr107   2.018       .  S
O89          C97   1.267       .  A
O90        Cr107   1.944       .  S
O90          C91   1.255       .  A
C91          O92   1.275       .  A
C91         C264   1.475       .  S
O92        Cr108   2.045       .  S
O93        Cr108   1.974       .  S
O93          C94   1.256       .  A
C94          O95   1.264       .  A
C94         C331   1.468       .  S
O95        Cr109   2.009       .  S
O96        Cr109   1.940       .  S
O96          C97   1.251       .  A
C97         C280   1.452       .  S
O98        Cr107   1.977       .  S
O98         C106   1.261       .  A
O99        Cr107   2.024       .  S
O99         C100   1.266       .  A
C100        O101   1.254       .  A
C100        C312   1.476       .  S
O101       Cr108   1.963       .  S
O102       Cr108   2.030       .  S
O102        C103   1.274       .  A
C103        O104   1.254       .  A
C103        C296   1.456       .  S
O104       Cr109   1.933       .  S
O105       Cr109   2.019       .  S
O105        C106   1.270       .  A
C106        C475   1.476       .  S
Cr107       O110   1.769       .  S
Cr108       O110   1.769       .  S
Cr109       O110   1.763       .  S
O111       Cr129   1.964       .  S
O111        C119   1.258       .  A
O112       Cr129   2.003       .  S
O112        C113   1.262       .  A
C113        O114   1.258       .  A
C113        C216   1.471       .  S
O114       Cr130   1.984       .  S
O115       Cr130   2.040       .  S
O115        C116   1.274       .  A
C116        O117   1.256       .  A
C116        C267   1.474       .  S
O117       Cr131   1.949       .  S
O118       Cr131   2.016       .  S
O118        C119   1.268       .  A
C119        C251   1.466       .  S
O120       Cr129   2.013       .  S
O120        C128   1.267       .  A
O121       Cr129   1.957       .  S
O121        C122   1.260       .  A
C122        O123   1.272       .  A
C122        C235   1.469       .  S
O123       Cr130   2.024       .  S
O124       Cr130   1.963       .  S
O124        C125   1.254       .  A
C125        O126   1.265       .  A
C125        C200   1.478       .  S
O126       Cr131   2.027       .  S
O127       Cr131   1.981       .  S
O127        C128   1.262       .  A
C128        C392   1.474       .  S
Cr129       O132   1.768       .  S
Cr130       O132   1.771       .  S
Cr131       O132   1.778       .  S
O133       Cr151   1.941       .  S
O133        C141   1.253       .  A
O134       Cr151   2.005       .  S
O134        C135   1.263       .  A
C135        O136   1.257       .  A
C135        C203   1.468       .  S
O136       Cr152   1.979       .  S
O137       Cr152   2.033       .  S
O137        C138   1.272       .  A
C138        O139   1.257       .  A
C138        C184   1.475       .  S
O139       Cr153   1.954       .  S
O140       Cr153   2.023       .  S
O140        C141   1.270       .  A
C141        C299   1.457       .  S
O142       Cr151   2.013       .  S
O142        C150   1.266       .  A
O143       Cr151   1.940       .  S
O143        C144   1.256       .  A
C144        O145   1.272       .  A
C144        C283   1.453       .  S
O145       Cr152   2.019       .  S
O146       Cr152   1.967       .  S
O146        C147   1.256       .  A
C147        O148   1.268       .  A
C147        C219   1.480       .  S
O148       Cr153   2.026       .  S
O149       Cr153   1.985       .  S
O149        C150   1.261       .  A
C150        C347   1.476       .  S
Cr151       O154   1.768       .  S
Cr152       O154   1.770       .  S
Cr153       O154   1.769       .  S
O155       Cr173   2.018       .  S
O155        C163   1.268       .  A
O156       Cr173   1.963       .  S
O156        C157   1.258       .  A
C157        O158   1.271       .  A
C157        C187   1.473       .  S
O158       Cr174   2.026       .  S
O159       Cr174   1.984       .  S
O159        C160   1.258   1_545  A
C160        O161   1.261       .  A
C160        C315   1.467       .  S
O161       Cr175   1.999       .  S
O162       Cr175   1.963       .  S
O162        C163   1.258   1_565  A
C163        C232   1.467   1_545  S
O164       Cr173   1.985       .  S
O164        C172   1.262       .  A
O165       Cr173   2.026       .  S
O165        C166   1.266       .  A
C166        O167   1.255       .  A
C166        C328   1.478       .  S
O167       Cr174   1.963       .  S
O168       Cr174   2.016       .  S
O168        C169   1.270       .  A
C169        O170   1.261       .  A
C169        C248   1.466       .  S
O170       Cr175   1.960   1_545  S
O171       Cr175   2.008   1_545  S
O171        C172   1.266       .  A
C172        C363   1.475       .  S
Cr173       O176   1.779       .  S
Cr174       O176   1.770       .  S
Cr175       O176   1.770   1_565  S
C177        S183   1.715       .  A
C177        C182   1.386       .  A
C177        C178   1.404       .  A
C178        C179   1.406       .  A
C178        H189   1.083       .  S
C179        C188   1.370       .  A
C179        C180   1.387       .  A
C180        S186   1.708       .  A
C180        C181   1.398       .  A
C181        C182   1.401       .  A
C181        H190   1.083       .  S
C182        C185   1.364       .  A
S183        C184   1.723       .  A
C184        C185   1.388       .  A
C185        H191   1.083       .  S
S186        C187   1.720       .  A
C187        C188   1.391       .  A
C188        H192   1.083       .  S
C193        S199   1.718       .  A
C193        C198   1.385       .  A
C193        C194   1.408       .  A
C194        C195   1.409       .  A
C194        H205   1.083       .  S
C195        C204   1.376       .  A
C195        C196   1.387       .  A
C196        S202   1.705       .  A
C196        C197   1.397       .  A
C197        C198   1.399       .  A
C197        H206   1.083       .  S
C198        C201   1.365       .  A
S199        C200   1.728       .  A
C200        C201   1.387       .  A
C201        H207   1.083       .  S
S202        C203   1.717       .  A
C203        C204   1.389       .  A
C204        H208   1.083       .  S
C209        S215   1.710       .  A
C209        C214   1.387       .  A
C209        C210   1.402       .  A
C210        C211   1.404       .  A
C210        H221   1.082       .  S
C211        C220   1.371       .  A
C211        C212   1.386       .  A
C212        S218   1.714       .  A
C212        C213   1.406       .  A
C213        C214   1.407       .  A
C213        H222   1.082       .  S
C214        C217   1.375   1_545  A
S215        C216   1.721   1_545  A
C216        C217   1.388       .  A
C217        H223   1.083       .  S
S218        C219   1.725       .  A
C219        C220   1.390       .  A
C220        H224   1.083       .  S
C225        S231   1.709   1_565  A
C225        C230   1.387       .  A
C225        C226   1.400       .  A
C226        C227   1.402       .  A
C226        H237   1.082   1_565  S
C227        C236   1.366       .  A
C227        C228   1.387       .  A
C228        S234   1.709       .  A
C228        C229   1.400       .  A
C229        C230   1.402       .  A
C229        H238   1.082       .  S
C230        C233   1.365       .  A
S231        C232   1.721   1_545  A
C232        C233   1.386       .  A
C233        H239   1.083       .  S
S234        C235   1.721       .  A
C235        C236   1.387       .  A
C236        H240   1.083       .  S
C241        S247   1.709       .  A
C241        C246   1.387   1_545  A
C241        C242   1.400       .  A
C242        C243   1.403   1_546  A
C242        H253   1.082       .  S
C243        C252   1.366       .  A
C243        C244   1.387   1_554  A
C244        S250   1.706   1_556  A
C244        C245   1.398       .  A
C245        C246   1.400       .  A
C245        H254   1.082       .  S
C246        C249   1.364       .  A
S247        C248   1.722       .  A
C248        C249   1.384   1_545  A
C249        H255   1.083       .  S
S250        C251   1.720       .  A
C251        C252   1.386       .  A
C252        H256   1.083       .  S
C257        S263   1.718       .  A
C257        C262   1.386       .  A
C257        C258   1.402       .  A
C258        C259   1.406   1_556  A
C258        H269   1.083       .  S
C259        C268   1.365       .  A
C259        C260   1.386       .  A
C260        S266   1.714       .  A
C260        C261   1.399       .  A
C261        C262   1.403   1_554  A
C261        H270   1.083       .  S
C262        C265   1.362       .  A
S263        C264   1.723       .  A
C264        C265   1.390       .  A
C265        H271   1.084       .  S
S266        C267   1.721       .  A
C267        C268   1.391       .  A
C268        H272   1.084       .  S
C273        S279   1.694       .  A
C273        C278   1.388   1_556  A
C273        C274   1.395   1_556  A
C274        C275   1.395       .  A
C274        H285   1.082       .  S
C275        C284   1.364       .  A
C275        C276   1.388       .  A
C276        S282   1.695       .  A
C276        C277   1.396       .  A
C277        C278   1.396       .  A
C277        H286   1.081       .  S
C278        C281   1.365   1_554  A
S279        C280   1.721       .  A
C280        C281   1.379       .  A
C281        H287   1.082       .  S
S282        C283   1.721       .  A
C283        C284   1.379       .  A
C284        H288   1.082       .  S
C289        S295   1.693       .  A
C289        C294   1.389       .  A
C289        C290   1.397       .  A
C290        C291   1.395       .  A
C290        H301   1.082       .  S
C291        C300   1.366       .  A
C291        C292   1.388       .  A
C292        S298   1.696       .  A
C292        C293   1.398       .  A
C293        C294   1.397       .  A
C293        H302   1.082       .  S
C294        C297   1.369       .  A
S295        C296   1.722       .  A
C296        C297   1.380       .  A
C297        H303   1.083       .  S
S298        C299   1.722       .  A
C299        C300   1.380       .  A
C300        H304   1.083       .  S
C305        S311   1.713       .  A
C305        C310   1.386       .  A
C305        C306   1.404       .  A
C306        C307   1.406       .  A
C306        H317   1.083       .  S
C307        C316   1.373       .  A
C307        C308   1.387       .  A
C308        S314   1.708       .  A
C308        C309   1.401       .  A
C309        C310   1.402       .  A
C309        H318   1.084       .  S
C310        C313   1.368       .  A
S311        C312   1.725       .  A
C312        C313   1.389       .  A
C313        H319   1.084       .  S
S314        C315   1.720       .  A
C315        C316   1.386       .  A
C316        H320   1.083       .  S
C321        S327   1.716       .  A
C321        C326   1.386       .  A
C321        C322   1.406       .  A
C322        C323   1.408       .  A
C322        H333   1.083       .  S
C323        C332   1.374       .  A
C323        C324   1.387       .  A
C324        S330   1.708       .  A
C324        C325   1.399       .  A
C325        C326   1.401       .  A
C325        H334   1.083       .  S
C326        C329   1.367       .  A
S327        C328   1.726       .  A
C328        C329   1.388       .  A
C329        H335   1.083       .  S
S330        C331   1.718       .  A
C331        C332   1.388       .  A
C332        H336   1.083       .  S
C337        S343   1.707       .  A
C337        C342   1.387       .  A
C337        C338   1.401       .  A
C338        C339   1.402   1_655  A
C338        H349   1.083       .  S
C339        C348   1.370       .  A
C339        C340   1.386       .  A
C340        S346   1.711       .  A
C340        C341   1.404   1_455  A
C341        C342   1.405       .  A
C341        H350   1.083       .  S
C342        C345   1.374       .  A
S343        C344   1.724       .  A
C344        C345   1.389       .  A
C345        H351   1.083       .  S
S346        C347   1.724       .  A
C347        C348   1.388       .  A
C348        H352   1.083       .  S
C353        S359   1.710       .  A
C353        C358   1.387       .  A
C353        C354   1.405       .  A
C354        C355   1.405       .  A
C354        H365   1.084       .  S
C355        C364   1.375       .  A
C355        C356   1.387       .  A
C356        S362   1.704   1_545  A
C356        C357   1.400       .  A
C357        C358   1.401       .  A
C357        H366   1.084   1_545  S
C358        C361   1.370       .  A
S359        C360   1.726       .  A
C360        C361   1.386       .  A
C361        H367   1.084   1_545  S
S362        C363   1.723   1_565  A
C363        C364   1.389       .  A
C364        H368   1.083       .  S
C369        S375   1.713       .  A
C369        C374   1.386       .  A
C369        C370   1.398       .  A
C370        C371   1.403   1_556  A
C370        H381   1.083       .  S
C371        C380   1.362       .  A
C371        C372   1.385       .  A
C372        S378   1.718       .  A
C372        C373   1.402       .  A
C373        C374   1.406   1_554  A
C373        H382   1.083       .  S
C374        C377   1.365       .  A
S375        C376   1.720       .  A
C376        C377   1.392       .  A
C377        H383   1.084       .  S
S378        C379   1.723       .  A
C379        C380   1.389       .  A
C380        H384   1.084       .  S
C385        S391   1.705       .  A
C385        C390   1.387       .  A
C385        C386   1.401       .  A
C386        C387   1.401       .  A
C386        H397   1.083       .  S
C387        C396   1.370       .  A
C387        C388   1.387       .  A
C388        S394   1.710       .  A
C388        C389   1.404       .  A
C389        C390   1.405       .  A
C389        H398   1.083       .  S
C390        C393   1.374       .  A
S391        C392   1.723       .  A
C392        C393   1.388       .  A
C393        H399   1.083       .  S
S394        C395   1.725       .  A
C395        C396   1.387       .  A
C396        H400   1.083       .  S
C401        S407   1.712       .  A
C401        C406   1.387       .  A
C401        C402   1.409       .  A
C402        C403   1.408       .  A
C402        H413   1.083       .  S
C403        C412   1.381       .  A
C403        C404   1.387       .  A
C404        S410   1.701       .  A
C404        C405   1.401       .  A
C405        C406   1.400       .  A
C405        H414   1.083       .  S
C406        C409   1.374       .  A
S407        C408   1.724       .  A
C408        C409   1.383       .  A
C409        H415   1.083       .  S
S410        C411   1.725       .  A
C411        C412   1.392       .  A
C412        H416   1.083       .  S
C417        S423   1.710       .  A
C417        C422   1.387       .  A
C417        C418   1.400       .  A
C418        C419   1.402       .  A
C418        H429   1.083       .  S
C419        C428   1.368       .  A
C419        C420   1.386       .  A
C420        S426   1.715       .  A
C420        C421   1.406       .  A
C421        C422   1.407       .  A
C421        H430   1.083       .  S
C422        C425   1.374   1_545  A
S423        C424   1.719   1_545  A
C424        C425   1.388       .  A
C425        H431   1.083       .  S
S426        C427   1.726       .  A
C427        C428   1.389       .  A
C428        H432   1.083       .  S
C433        S439   1.699       .  A
C433        C438   1.387       .  A
C433        C434   1.401       .  A
C434        C435   1.399       .  A
C434        H445   1.082       .  S
C435        C444   1.372   1_554  A
C435        C436   1.388   1_554  A
C436        S442   1.704       .  A
C436        C437   1.403   1_556  A
C437        C438   1.402       .  A
C437        H446   1.082       .  S
C438        C441   1.375       .  A
S439        C440   1.725       .  A
C440        C441   1.387       .  A
C441        H447   1.082       .  S
S442        C443   1.724       .  A
C443        C444   1.383       .  A
C444        H448   1.082   1_565  S
C449        S455   1.709       .  A
C449        C454   1.387       .  A
C449        C450   1.399       .  A
C450        C451   1.402       .  A
C450        H461   1.082       .  S
C451        C460   1.365       .  A
C451        C452   1.387   1_565  A
C452        S458   1.709       .  A
C452        C453   1.399       .  A
C453        C454   1.402   1_545  A
C453        H462   1.082       .  S
C454        C457   1.365       .  A
S455        C456   1.720       .  A
C456        C457   1.385       .  A
C457        H463   1.083       .  S
S458        C459   1.721       .  A
C459        C460   1.386   1_545  A
C460        H464   1.083       .  S
C465        S471   1.704       .  A
C465        C470   1.387       .  A
C465        C466   1.400   1_655  A
C466        C467   1.401       .  A
C466        H477   1.083       .  S
C467        C476   1.370       .  A
C467        C468   1.386       .  A
C468        S474   1.712       .  A
C468        C469   1.406   1_455  A
C469        C470   1.406       .  A
C469        H478   1.083       .  S
C470        C473   1.376       .  A
S471        C472   1.724       .  A
C472        C473   1.389       .  A
C473        H479   1.083       .  S
S474        C475   1.726       .  A
C475        C476   1.386       .  A
C476        H480   1.083       .  S
C481        S487   1.699       .  A
C481        C486   1.388       .  A
C481        C482   1.403       .  A
C482        C483   1.401       .  A
C482        H493   1.084       .  S
C483        C492   1.377       .  A
C483        C484   1.388       .  A
C484        S490   1.701       .  A
C484        C485   1.404       .  A
C485        C486   1.402       .  A
C485        H494   1.083       .  S
C486        C489   1.378       .  A
S487        C488   1.727       .  A
C488        C489   1.386       .  A
C489        H495   1.083       .  S
S490        C491   1.728       .  A
C491        C492   1.385       .  A
C492        H496   1.084       .  S
C497        S503   1.693       .  A
C497        C502   1.388       .  A
C497        C498   1.397       .  A
C498        C499   1.396       .  A
C498        H509   1.082       .  S
C499        C508   1.367       .  A
C499        C500   1.388       .  A
C500        S506   1.699       .  A
C500        C501   1.400       .  A
C501        C502   1.399       .  A
C501        H510   1.082       .  S
C502        C505   1.371       .  A
S503        C504   1.724       .  A
C504        C505   1.383       .  A
C505        H511   1.082       .  S
S506        C507   1.722       .  A
C507        C508   1.381       .  A
C508        H512   1.082       .  S
C513        S519   1.692       .  A
C513        C518   1.388       .  A
C513        C514   1.395       .  A
C514        C515   1.394   1_556  A
C514        H525   1.082       .  S
C515        C524   1.365       .  A
C515        C516   1.388       .  A
C516        S522   1.702       .  A
C516        C517   1.402   1_554  A
C517        C518   1.401       .  A
C517        H526   1.082       .  S
C518        C521   1.373       .  A
S519        C520   1.722       .  A
C520        C521   1.384       .  A
C521        H527   1.082       .  S
S522        C523   1.724       .  A
C523        C524   1.380       .  A
C524        H528   1.082       .  S
C529        S535   1.713       .  A
C529        C534   1.386       .  A
C529        C530   1.405       .  A
C530        C531   1.407       .  A
C530        H541   1.083       .  S
C531        C540   1.375       .  A
C531        C532   1.387       .  A
C532        S538   1.712       .  A
C532        C533   1.402       .  A
C533        C534   1.404       .  A
C533        H542   1.083       .  S
C534        C537   1.371       .  A
S535        C536   1.725       .  A
C536        C537   1.390       .  A
C537        H543   1.084       .  S
S538        C539   1.719       .  A
C539        C540   1.388       .  A
C540        H544   1.083       .  S
C545        S551   1.703       .  A
C545        C550   1.387       .  A
C545        C546   1.403       .  A
C546        C547   1.402       .  A
C546        H557   1.083       .  S
C547        C556   1.376       .  A
C547        C548   1.387       .  A
C548        S554   1.708       .  A
C548        C549   1.406       .  A
C549        C550   1.405       .  A
C549        H558   1.083       .  S
C550        C553   1.379       .  A
S551        C552   1.727       .  A
C552        C553   1.390       .  A
C553        H559   1.083       .  S
S554        C555   1.722       .  A
C555        C556   1.385       .  A
C556        H560   1.083       .  S
