geometry optimzed in LAMMPS
_audit_creation_date              2020-12-01 
_audit_creation_method            'lammps2cif' 
_symmetry_space_group_name_H-M    'P1' 
_symmetry_Int_Tables_number       1 
_symmetry_cell_setting            triclinic 
loop_ 
_symmetry_equiv_pos_as_xyz 
  x,y,z 
_cell_length_a                    36.37603128 
_cell_length_b                    24.91933001796887 
_cell_length_c                    33.32280443685391 
_cell_angle_alpha                 90.65373390801165 
_cell_angle_beta                  89.38139768871166 
_cell_angle_gamma                 90.65059267548517 
loop_ 
_atom_site_label 
_atom_site_type_symbol 
_atom_site_fract_x 
_atom_site_fract_y 
_atom_site_fract_z 
_atom_site_charge 
O1          O  0.14464518  0.84090778  0.42688453    -0.84100
O2          O  0.11302038  0.92808358  0.39533403    -0.81100
C3          C  0.10987062  0.97657722  0.38640167     0.99400
O4          O  0.13741991  0.00308191  0.37351782    -0.81200
O5          O  0.19741566  0.00485538  0.42760486    -0.83800
C6          C  0.22641576  0.99052674  0.44471726     1.03900
O7          O  0.24333171  0.95002127  0.43282680    -0.76600
O8          O  0.19200073  0.87879680  0.45742395    -0.76800
C9          C  0.16104594  0.85585749  0.45920454     1.03900
O10         O  0.17648433  0.81757669  0.34398657    -0.84100
O11         O  0.14223594  0.91025944  0.31515900    -0.81100
C12         C  0.16128014  0.94596494  0.29661175     0.99400
O13         O  0.18754742  0.97005028  0.31327420    -0.81200
O14         O  0.24677391  0.97863265  0.36187518    -0.83800
C15         C  0.26857263  0.93915048  0.35743852     1.03900
O16         O  0.25716344  0.89165227  0.36302543    -0.76600
O17         O  0.21239896  0.80944084  0.39501136    -0.76700
C18         C  0.20040921  0.79163051  0.36245654     1.03800
Cr19       Cr  0.14733028  0.87645406  0.37089782     1.93700
Cr20       Cr  0.19171658  0.98376506  0.37033823     1.93200
Cr21       Cr  0.22309046  0.88440766  0.40948299     1.39100
O22         O  0.18698086  0.91488141  0.38292381    -1.21800
O23         O  0.36137864  0.64208139  0.41540661    -0.84100
O24         O  0.38290677  0.57233562  0.35370785    -0.81100
C25         C  0.39070466  0.53151992  0.37354353     0.99400
O26         O  0.36612799  0.50640760  0.39304530    -0.81200
O27         O  0.29741605  0.48365388  0.42794445    -0.83800
C28         C  0.29142869  0.51067714  0.45934709     1.03900
O29         O  0.29580992  0.56062389  0.46011686    -0.76600
O30         O  0.30670565  0.66296971  0.43622745    -0.76800
C31         C  0.34025549  0.65740961  0.44398330     1.03900
O32         O  0.30589030  0.68409307  0.35913747    -0.84100
O33         O  0.32214393  0.59841666  0.30475979    -0.81100
C34         C  0.32352215  0.54931051  0.29305434     0.99400
O35         O  0.33149671  0.51328966  0.31763976    -0.81200
O36         O  0.26390668  0.49949652  0.35371334    -0.83800
C37         C  0.23634205  0.51282630  0.37468923     1.03900
O38         O  0.23919296  0.54589677  0.40337381    -0.76600
O39         O  0.25337640  0.64520866  0.37347778    -0.76700
C40         C  0.27105582  0.68436358  0.35926861     1.03800
Cr41       Cr  0.34098682  0.62195683  0.35974782     1.93700
Cr42       Cr  0.31476776  0.50623453  0.37401281     1.93200
Cr43       Cr  0.27620063  0.60185689  0.41585041     1.39100
O44         O  0.31020342  0.57632485  0.38269662    -1.21800
O45         O  0.10927363  0.11857638  0.08759959    -0.84100
O46         O  0.10192542  0.03440162  0.13955326    -0.81100
C47         C  0.10071151  0.99249001  0.11735565     0.99400
O48         O  0.12836749  0.97825251  0.09700255    -0.81200
O49         O  0.19793890  0.98226909  0.06158738    -0.83800
C50         C  0.19419815  0.00890029  0.03013134     1.03900
O51         O  0.17846116  0.05290377  0.03136556    -0.76600
O52         O  0.15654160  0.15043987  0.05433304    -0.76800
C53         C  0.12235247  0.14073349  0.05652576     1.03900
O54         O  0.16385920  0.17157813  0.14076427    -0.84100
O55         O  0.15849226  0.07842189  0.19001079    -0.81100
C56         C  0.15986039  0.02931145  0.19984440     0.99400
O57         O  0.16040641  0.99306178  0.17318034    -0.81200
O58         O  0.22849681  0.00957056  0.13521556    -0.83800
C59         C  0.25228900  0.02987776  0.11170510     1.03900
O60         O  0.24293206  0.06007731  0.08323853    -0.76600
O61         O  0.21684410  0.15221136  0.11249035    -0.76700
C62         C  0.19759579  0.18310977  0.13357907     1.03800
Cr63       Cr  0.13599933  0.09925435  0.13766905     1.93700
Cr64       Cr  0.17788344  0.99632076  0.11625430     1.93200
Cr65       Cr  0.19663374  0.10138852  0.07320574     1.39100
O66         O  0.17058664  0.06618644  0.10977715    -1.21800
O67         O  0.34103032  0.33206559  0.08192234    -0.84100
O68         O  0.37076291  0.41973779  0.11997589    -0.81100
C69         C  0.37246566  0.46884450  0.11146625     0.99400
O70         O  0.34442912  0.49700486  0.10806052    -0.81200
O71         O  0.29066528  0.48755185  0.05568861    -0.83800
C72         C  0.26396118  0.46975173  0.03638424     1.03900
O73         O  0.24351714  0.43537311  0.05165163    -0.76600
O74         O  0.30084058  0.36386867  0.03884434    -0.76800
C75         C  0.33196744  0.34365730  0.04571487     1.03900
O76         O  0.29203170  0.31846463  0.15753482    -0.84100
O77         O  0.32436138  0.41154736  0.18847156    -0.81100
C78         C  0.31202763  0.45759283  0.19839928     0.99400
O79         O  0.29598453  0.48668276  0.17357095    -0.81200
O80         O  0.23769212  0.47552962  0.12293184    -0.83800
C81         C  0.21555911  0.43650066  0.12910575     1.03900
O82         O  0.22383373  0.38799710  0.12136496    -0.76600
O83         O  0.26946459  0.30106088  0.09953601    -0.76700
C84         C  0.27151921  0.28977331  0.13571262     1.03800
Cr85       Cr  0.32912072  0.37226863  0.13515813     1.93700
Cr86       Cr  0.29202579  0.48077796  0.11468989     1.93200
Cr87       Cr  0.26245542  0.37460724  0.08067479     1.39100
O88         O  0.29500703  0.40977923  0.11124721    -1.21800
O89         O  0.42156867  0.85338464  0.04231297    -0.84100
O90         O  0.46914212  0.93911887  0.05395779    -0.81100
C91         C  0.44524679  0.96657362  0.03809789     0.99400
O92         O  0.41753796  0.97964309  0.05826858    -0.81200
O93         O  0.36517995  0.97957272  0.11629554    -0.83800
C94         C  0.33942150  0.94675495  0.12269148     1.03900
O95         O  0.34566660  0.89848661  0.12993946    -0.76600
O96         O  0.37912501  0.82063181  0.08432882    -0.76800
C97         C  0.39032627  0.83156215  0.04840606     1.03900
O98         O  0.46087692  0.80013224  0.10222342    -0.84100
O99         O  0.99804510  0.89526805  0.12158289    -0.81100
C100        C  0.00241511  0.94506257  0.13043371     0.99400
O101        O  0.97702694  0.97956873  0.12594964    -0.81200
O102        O  0.41875583  0.97441742  0.17645265    -0.83800
C103        C  0.40988019  0.94035770  0.20260206     1.03900
O104        O  0.39872490  0.89308478  0.19316826    -0.76600
O105        O  0.42848317  0.80448018  0.15675393    -0.76700
C106        C  0.45276428  0.78192797  0.13584758     1.03800
Cr107      Cr  0.45824685  0.87443154  0.08339827     1.93700
Cr108      Cr  0.41927789  0.97267402  0.11775639     1.93200
Cr109      Cr  0.39094110  0.85731255  0.13873860     1.39100
O110        O  0.42244660  0.90136420  0.11445455    -1.21800
O111        O  0.05602239  0.63716716  0.05069011    -0.84100
O112        O  0.03576495  0.53594618  0.03185427    -0.81100
C113        C  0.02285821  0.48934588  0.03339331     0.99400
O114        O  0.02271494  0.46363212  0.06554608    -0.81200
O115        O  0.09355835  0.46802595  0.09170898    -0.83800
C116        C  0.12210225  0.48450642  0.10879445     1.03900
O117        O  0.12246760  0.52848078  0.12843322    -0.76600
O118        O  0.10784657  0.60575483  0.07168848    -0.76800
C119        C  0.08964915  0.62778931  0.04429646     1.03900
O120        O  0.50222722  0.63472790  0.12279568    -0.84100
O121        O  0.47780031  0.53886676  0.09415264    -0.81100
C122        C  0.47233915  0.50785833  0.12356329     0.99400
O123        O  0.49853963  0.49274696  0.14478606    -0.81200
O124        O  0.06807276  0.48773367  0.17126802    -0.83800
C125        C  0.07097072  0.52645112  0.19578283     1.03900
O126        O  0.07152938  0.57466310  0.18355757    -0.76600
O127        O  0.05924425  0.66156667  0.12997758    -0.76700
C128        C  0.02466664  0.66988419  0.12937081     1.03800
Cr129      Cr  0.02019125  0.58415922  0.07482534     1.93700
Cr130      Cr  0.04615240  0.48364821  0.11709997     1.93200
Cr131      Cr  0.08778641  0.59089716  0.12719885     1.39100
O132        O  0.05097055  0.55320083  0.10729211    -1.21800
O133        O  0.42447745  0.12178527  0.45815370    -0.84100
O134        O  0.47910670  0.04803598  0.45028640    -0.81100
C135        C  0.46576939  0.00225099  0.45559782     0.99400
O136        O  0.43906014  0.98558303  0.43511924    -0.81200
O137        O  0.38676561  0.98431512  0.37295175    -0.83800
C138        C  0.35862736  0.01266590  0.37992452     1.03900
O139        O  0.36126009  0.06243162  0.38567679    -0.76600
O140        O  0.38922440  0.15632150  0.41248520    -0.76800
C141        C  0.39512740  0.14523082  0.44919783     1.03900
O142        O  0.46002355  0.18013859  0.39438009    -0.84100
O143        O  0.00953935  0.10566586  0.37961986    -0.81100
C144        C  0.02004363  0.05744450  0.37592685     0.99400
O145        O  0.99674931  0.01889102  0.37763008    -0.81200
O146        O  0.44435302  0.00814763  0.31842016    -0.83800
C147        C  0.42029752  0.02943667  0.29718782     1.03900
O148        O  0.40013288  0.06660101  0.31109755    -0.76600
O149        O  0.43551289  0.15972952  0.33701675    -0.76700
C150        C  0.45698906  0.18862886  0.35753126     1.03800
Cr151      Cr  0.46531060  0.10885569  0.41876147     1.93700
Cr152      Cr  0.44106791  0.00256355  0.37711562     1.93200
Cr153      Cr  0.39961219  0.10907136  0.36309193     1.39100
O154        O  0.43531167  0.07294763  0.38585227    -1.21800
O155        O  0.05536365  0.33444273  0.43429599    -0.84100
O156        O  0.03523306  0.43478958  0.45743740    -0.81100
C157        C  0.02855543  0.48405738  0.45618392     0.99400
O158        O  0.03474600  0.51077661  0.42499772    -0.81200
O159        O  0.10695392  0.49849651  0.39980083    -0.83800
C160        C  0.13492379  0.47781812  0.38365499     1.03900
O161        O  0.13203768  0.43709802  0.36099013    -0.76600
O162        O  0.11033652  0.36155064  0.41663597    -0.76800
C163        C  0.08870112  0.34232771  0.44302113     1.03900
O164        O  0.50908970  0.32628959  0.37408572    -0.84100
O165        O  0.48272646  0.41458091  0.41044192    -0.81100
C166        C  0.47556144  0.44657019  0.38280361     0.99400
O167        O  0.50078236  0.46671027  0.36103513    -0.81200
O168        O  0.08217936  0.48592541  0.31929275    -0.83800
C169        C  0.07948011  0.44809665  0.29397323     1.03900
O170        O  0.07874986  0.39949630  0.30530898    -0.76600
O171        O  0.06256532  0.31214020  0.35613930    -0.76700
C172        C  0.02799670  0.30741685  0.35314397     1.03800
Cr173      Cr  0.02338814  0.39031722  0.41059053     1.93700
Cr174      Cr  0.05899097  0.49056436  0.37339636     1.93200
Cr175      Cr  0.09355243  0.37975115  0.36098892     1.39100
O176        O  0.05843023  0.42040770  0.38146987    -1.21800
O177        O  0.31290592  0.13068864  0.54389125    -0.84100
O178        O  0.25947512  0.05006995  0.55245134    -0.81100
C179        C  0.28196106  0.02057493  0.53570506     0.99400
O180        O  0.30990806  0.00696753  0.55454913    -0.81200
O181        O  0.36358545  0.00657217  0.61159007    -0.83800
C182        C  0.38873999  0.03906741  0.62203569     1.03900
O183        O  0.38144543  0.08573895  0.63373234    -0.76600
O184        O  0.35053313  0.16493472  0.59015635    -0.76800
C185        C  0.34342099  0.15266128  0.55326147     1.03900
O186        O  0.27334790  0.18734781  0.60223144    -0.84100
O187        O  0.23237271  0.09054466  0.62013768    -0.81100
C188        C  0.22727843  0.04021404  0.62571539     0.99400
O189        O  0.25313885  0.00631427  0.62020642    -0.81200
O190        O  0.30936870  0.00623039  0.67364121    -0.83800
C191        C  0.31631198  0.03931033  0.70150537     1.03900
O192        O  0.32567914  0.08778948  0.69445242    -0.76600
O193        O  0.29605842  0.17656235  0.66075063    -0.76700
C194        C  0.27586251  0.20220625  0.63780692     1.03800
Cr195      Cr  0.27281018  0.11282014  0.58286139     1.93700
Cr196      Cr  0.30871192  0.01221835  0.61470860     1.93200
Cr197      Cr  0.33571396  0.12602828  0.64232840     1.39100
O198        O  0.30601814  0.08334226  0.61456026    -1.21800
O199        O  0.18006692  0.33521560  0.54865966    -0.84100
O200        O  0.20439921  0.43349286  0.52554496    -0.81100
C201        C  0.21243468  0.48255330  0.52696035     0.99400
O202        O  0.20701390  0.51039852  0.55806277    -0.81200
O203        O  0.13428959  0.50357498  0.58100284    -0.83800
C204        C  0.10538907  0.48605619  0.59740713     1.03900
O205        O  0.10602932  0.44505666  0.61945566    -0.76600
O206        O  0.12584214  0.36517240  0.56548384    -0.76800
C207        C  0.14700327  0.34370898  0.53960294     1.03900
O208        O  0.22709529  0.34598820  0.61869358    -0.84100
O209        O  0.25392651  0.43952164  0.58987107    -0.81100
C210        C  0.25662810  0.47307371  0.61834173     0.99400
O211        O  0.22856647  0.48974264  0.63697538    -0.81200
O212        O  0.15624783  0.49346859  0.66257878    -0.83800
C213        C  0.15600989  0.45669094  0.68828257     1.03900
O214        O  0.15635667  0.40756629  0.67722387    -0.76600
O215        O  0.17096340  0.31631480  0.62727027    -0.76700
C216        C  0.20540166  0.30986864  0.63032588     1.03800
Cr217      Cr  0.21374297  0.39057573  0.57294494     1.93700
Cr218      Cr  0.18108638  0.49384599  0.60895419     1.93200
Cr219      Cr  0.14228233  0.38544015  0.62120187     1.39100
O220        O  0.17921630  0.42342224  0.60119282    -1.21800
O221        O  0.31566513  0.83361328  0.94254715    -0.84100
O222        O  0.29142886  0.93007128  0.96604957    -0.81100
C223        C  0.27515513  0.97371750  0.96704846     0.99400
O224        O  0.27064564  0.99976464  0.93541582    -0.81200
O225        O  0.33873722  0.00766643  0.89653418    -0.83800
C226        C  0.36573678  0.99445413  0.87472085     1.03900
O227        O  0.36518111  0.95112004  0.85438087    -0.76600
O228        O  0.36158073  0.86890407  0.90904375    -0.76800
C229        C  0.34948704  0.84584596  0.94027473     1.03900
O230        O  0.25461059  0.82881194  0.88550061    -0.84100
O231        O  0.22616659  0.91904099  0.91621411    -0.81100
C232        C  0.21546699  0.94858164  0.88799175     0.99400
O233        O  0.23821438  0.96877722  0.86333679    -0.81200
O234        O  0.30387628  0.98767688  0.82261433    -0.83800
C235        C  0.30673205  0.95132221  0.79618500     1.03900
O236        O  0.30987433  0.90254209  0.80636634    -0.76600
O237        O  0.30802081  0.81150294  0.85739825    -0.76700
C238        C  0.27449966  0.79903846  0.86419094     1.03800
Cr239      Cr  0.27393345  0.88040713  0.92460190     1.93700
Cr240      Cr  0.28892771  0.98553814  0.88009660     1.93200
Cr241      Cr  0.33350365  0.88489948  0.85890433     1.39100
O242        O  0.29843469  0.91655051  0.88720624    -1.21800
O243        O  0.18842778  0.59808814  0.95146505    -0.84100
O244        O  0.23922770  0.52546537  0.92405391    -0.81100
C245        C  0.21898644  0.48933164  0.93771869     0.99400
O246        O  0.19074559  0.47547222  0.91907309    -0.81200
O247        O  0.13352334  0.47867585  0.86825623    -0.83800
C248        C  0.10601496  0.50661755  0.87704453     1.03900
O249        O  0.10804692  0.55684756  0.88041295    -0.76600
O250        O  0.14281282  0.63814180  0.92047418    -0.76800
C251        C  0.15784404  0.62149015  0.95285767     1.03900
O252        O  0.21337561  0.66950844  0.89336186    -0.84100
O253        O  0.25444297  0.58718858  0.85806225    -0.81100
C254        C  0.26302587  0.54003921  0.84738874     0.99400
O255        O  0.24082426  0.50063786  0.85150046    -0.81200
O256        O  0.18110308  0.50789219  0.80519894    -0.83800
C257        C  0.15921992  0.53770038  0.78731398     1.03900
O258        O  0.14363916  0.57725071  0.80507831    -0.76600
O259        O  0.18028511  0.66455688  0.84004462    -0.76700
C260        C  0.20464619  0.68821503  0.86031463     1.03800
Cr261      Cr  0.22066493  0.59324127  0.90419032     1.93700
Cr262      Cr  0.18645583  0.49624429  0.86222105     1.93200
Cr263      Cr  0.14687655  0.60687798  0.86244112     1.39100
O264        O  0.18404081  0.56540636  0.87547065    -1.21800
O265        O  0.11278046  0.86946919  0.57869373    -0.84100
O266        O  0.12545987  0.95191413  0.63431975    -0.81100
C267        C  0.12707862  0.99350567  0.61281132     0.99400
O268        O  0.09919300  0.00780192  0.59366461    -0.81200
O269        O  0.03063399  0.00182071  0.55848759    -0.83800
C270        C  0.03032009  0.97138458  0.52800499     1.03900
O271        O  0.03740656  0.92255267  0.52971002    -0.76600
O272        O  0.06225381  0.83026375  0.55898518    -0.76800
C273        C  0.09530682  0.84351897  0.55189524     1.03900
O274        O  0.06318664  0.81592674  0.63662203    -0.84100
O275        O  0.07056216  0.90974799  0.68684537    -0.81100
C276        C  0.06728292  0.95897259  0.69694500     0.99400
O277        O  0.06512061  0.99499306  0.67063920    -0.81200
O278        O  0.50368263  0.98308183  0.62750791    -0.83800
C279        C  0.47856304  0.96018366  0.60724670     1.03900
O280        O  0.48622159  0.92449939  0.58162190    -0.76600
O281        O  0.50977740  0.83875565  0.62155491    -0.76700
C282        C  0.02871019  0.80645887  0.63614177     1.03800
Cr283      Cr  0.09040286  0.88842274  0.63255068     1.93700
Cr284      Cr  0.04863289  0.99172330  0.61374858     1.93200
Cr285      Cr  0.02412217  0.88305630  0.57753381     1.39100
O286        O  0.05422701  0.92159215  0.60817710    -1.21800
O287        O  0.37557808  0.63721437  0.57156858    -0.84100
O288        O  0.35709718  0.55848939  0.62694938    -0.81100
C289        C  0.35574867  0.51677857  0.60506930     0.99400
O290        O  0.38409320  0.49929275  0.58758862    -0.81200
O291        O  0.45622318  0.49593433  0.56061789    -0.83800
C292        C  0.45817719  0.52357948  0.52922956     1.03900
O293        O  0.44863977  0.57150989  0.52928054    -0.76600
O294        O  0.42905848  0.66977852  0.55515529    -0.76800
C295        C  0.39652142  0.65838717  0.54518825     1.03900
O296        O  0.42370154  0.68770998  0.63389872    -0.84100
O297        O  0.40910933  0.59687757  0.68353104    -0.81100
C298        C  0.41002365  0.54755064  0.69369484     0.99400
O299        O  0.40935210  0.51102699  0.66729560    -0.81200
O300        O  0.98231391  0.51683871  0.63809005    -0.83800
C301        C  0.00804373  0.53266988  0.61535958     1.03900
O302        O  0.00199154  0.56206834  0.58535040    -0.76600
O303        O  0.47918915  0.65853234  0.62150288    -0.76700
C304        C  0.45842731  0.69401635  0.63557262     1.03800
Cr305      Cr  0.39362434  0.61861978  0.62771282     1.93700
Cr306      Cr  0.43200437  0.51131339  0.61302147     1.96400
Cr307      Cr  0.46280861  0.61425916  0.57610443     1.39100
O308        O  0.42966865  0.58134639  0.60618897    -1.21800
O309        O  0.09275809  0.16817204  0.91287854    -0.84100
O310        O  0.12610874  0.08504806  0.87381166    -0.81100
C311        C  0.13006566  0.03564181  0.87912567     0.99400
O312        O  0.10287973  0.00402015  0.88166353    -0.81200
O313        O  0.04586353  0.00531037  0.93631127    -0.83800
C314        C  0.01678032  0.01815116  0.95433084     1.03900
O315        O  0.99785875  0.05511120  0.94138012    -0.76600
O316        O  0.05143949  0.13269709  0.95451753    -0.76800
C317        C  0.08230284  0.15558181  0.94865320     1.03900
O318        O  0.04672564  0.17989857  0.83703478    -0.84100
O319        O  0.08053752  0.09130878  0.80492092    -0.81100
C320        C  0.06779375  0.04571026  0.79393937     0.99400
O321        O  0.05286495  0.01405709  0.81848225    -0.81200
O322        O  0.48314738  0.00168085  0.85568066    -0.83800
C323        C  0.46080571  0.04009550  0.85104856     1.03900
O324        O  0.46849404  0.08784559  0.86197194    -0.76600
O325        O  0.50739743  0.17298172  0.89892073    -0.76700
C326        C  0.02439725  0.20611811  0.85818587     1.03800
Cr327      Cr  0.08347201  0.12845448  0.85914465     1.93700
Cr328      Cr  0.04903170  0.01557964  0.87723915     1.93200
Cr329      Cr  0.01478634  0.11775718  0.91231004     1.39100
O330        O  0.04956046  0.08684185  0.88197425    -1.21800
O331        O  0.36460553  0.37648262  0.90592526    -0.84100
O332        O  0.35917116  0.45785702  0.85166335    -0.81100
C333        C  0.35828370  0.50205519  0.87110255     0.99400
O334        O  0.38553296  0.51846718  0.89111003    -0.81200
O335        O  0.45595733  0.51885425  0.92409356    -0.83800
C336        C  0.45237849  0.49561904  0.95704513     1.03900
O337        O  0.43607161  0.45140105  0.95891046    -0.76600
O338        O  0.41101383  0.35205817  0.94254199    -0.76800
C339        C  0.37675565  0.35830203  0.93850223     1.03900
O340        O  0.41893556  0.32207012  0.85417426    -0.84100
O341        O  0.41459945  0.41268798  0.80092035    -0.81100
C342        C  0.41561932  0.46152092  0.78983285     0.99400
O343        O  0.41680062  0.49845157  0.81566508    -0.81200
O344        O  0.97744084  0.49467969  0.85158185    -0.83800
C345        C  0.00364460  0.47791264  0.87218396     1.03900
O346        O  0.99792593  0.44652100  0.90129138    -0.76600
O347        O  0.47113326  0.34198728  0.88347633    -0.76700
C348        C  0.45167882  0.30985958  0.86353658     1.03800
Cr349      Cr  0.39208757  0.39396247  0.85499507     1.93700
Cr350      Cr  0.43472369  0.49858844  0.87134341     1.93200
Cr351      Cr  0.45210338  0.39810365  0.91947258     1.39100
O352        O  0.42643134  0.42950473  0.88154985    -1.21800
C353        C  0.50342673  0.24585151  0.85517035    -0.15200
C354        C  0.46670458  0.25531429  0.85570719    -0.30300
H355        H  0.52279145  0.27909807  0.85225996     0.13900
H356        H  0.95234866  0.22681673  0.85456710     0.14400
C357        C  0.41144370  0.53058775  0.73631240    -0.15200
C358        C  0.41387832  0.47783740  0.74706350    -0.30300
H359        H  0.41096861  0.56196593  0.75919544     0.13900
H360        H  0.41420155  0.44639190  0.72424441     0.14400
C361        C  0.06640762  0.97594006  0.73978794    -0.15200
C362        C  0.07027983  0.02823908  0.75128211    -0.30300
H363        H  0.06260007  0.94506811  0.76224297     0.13900
H364        H  0.07600158  0.05875137  0.72898327     0.14400
C365        C  0.47496999  0.74597718  0.64788603    -0.15200
C366        C  0.51191487  0.75287424  0.64932241    -0.30300
H367        H  0.45719888  0.78071456  0.64762736     0.13900
H368        H  0.03145548  0.71818313  0.64024988     0.14400
C369        C  0.30115340  0.52714590  0.83916280    -0.15200
C370        C  0.32546910  0.53520535  0.86871682    -0.30300
H371        H  0.30676716  0.49807804  0.81536288     0.13900
H372        H  0.31940291  0.56264504  0.89348177     0.14400
C373        C  0.07035368  0.48003211  0.88258217    -0.15200
C374        C  0.04066643  0.49931896  0.86446075    -0.30300
H375        H  0.06861691  0.44391851  0.90048976     0.13900
H376        H  0.04350685  0.53336764  0.84449236     0.14400
C377        C  0.39808528  0.02996007  0.87228398    -0.15200
C378        C  0.42296627  0.02488841  0.84240392    -0.30300
H379        H  0.40346538  0.05684194  0.89755998     0.13900
H380        H  0.41821767  0.99620802  0.81814159     0.14400
C381        C  0.17653978  0.96402122  0.88669643    -0.15200
C382        C  0.16795464  0.01552061  0.88058031    -0.30300
H383        H  0.15532574  0.93470895  0.89427230     0.13900
H384        H  0.19000914  0.04465834  0.87570388     0.14400
C385        C  0.25877662  0.74652433  0.85182805    -0.15200
C386        C  0.22200262  0.73930907  0.84808283    -0.30300
H387        H  0.27650005  0.71184291  0.85365819     0.13900
H388        H  0.20421054  0.77364342  0.84470520     0.14400
C389        C  0.29265858  0.49688802  0.62647642    -0.15200
C390        C  0.32115790  0.48726836  0.60145245    -0.30300
H391        H  0.29503352  0.52607699  0.65080473     0.13900
H392        H  0.31898333  0.45767554  0.57736942     0.14400
C393        C  0.07109676  0.51522648  0.59314248    -0.15200
C394        C  0.04474940  0.51146633  0.62147514    -0.30300
H395        H  0.06742482  0.53962857  0.56669804     0.13900
H396        H  0.04913101  0.48774930  0.64815409     0.14400
C397        C  0.15630246  0.47223772  0.73128382    -0.15200
C398        C  0.15206922  0.52370165  0.74469073    -0.30300
H399        H  0.16216160  0.44075568  0.75249313     0.13900
H400        H  0.14421316  0.55517325  0.72431653     0.14400
C401        C  0.43930850  0.97428517  0.61154194    -0.15200
C402        C  0.42803836  0.02368998  0.62139163    -0.30300
H403        H  0.41910321  0.94419393  0.60247363     0.13900
H404        H  0.44838913  0.05432361  0.62896132     0.14400
C405        C  0.19033456  0.01772768  0.63466218    -0.15200
C406        C  0.16152716  0.02618759  0.61047593    -0.30300
H407        H  0.18859044  0.98581850  0.65654998     0.13900
H408        H  0.16386512  0.05628580  0.58722434     0.14400
C409        C  0.30839128  0.96802617  0.75350090    -0.15200
C410        C  0.31337423  0.02048768  0.74352540    -0.30300
H411        H  0.30687786  0.93721570  0.73026375     0.13900
H412        H  0.31626864  0.05075324  0.76702246     0.14400
C413        C  0.25640721  0.25128502  0.65046628    -0.15200
C414        C  0.22067201  0.25720575  0.64096904    -0.30300
H415        H  0.27296548  0.28586733  0.65937970     0.13900
H416        H  0.20424166  0.22188563  0.63337832     0.14400
C417        C  0.51048561  0.47862619  0.50176565    -0.15200
C418        C  0.47880720  0.50385688  0.49538907    -0.30300
H419        H  0.51889052  0.46718958  0.53167495     0.13900
H420        H  0.47044640  0.51519632  0.46543147     0.14400
C421        C  0.10010562  0.33457262  0.48547499    -0.15200
C422        C  0.13532489  0.33354404  0.49730184    -0.30300
H423        H  0.07849738  0.33523733  0.50824263     0.13900
H424        H  0.15688734  0.33072126  0.47458577     0.14400
C425        C  0.51371491  0.23980560  0.34688497    -0.15200
C426        C  0.47717391  0.23473048  0.34059932    -0.30300
H427        H  0.52973349  0.20431574  0.35296326     0.13900
H428        H  0.46109581  0.26981576  0.33363020     0.14400
C429        C  0.01578153  0.99180691  0.49177511    -0.15200
C430        C  0.48610962  0.96810150  0.48229178    -0.30300
H431        H  0.53606344  0.01161966  0.47129298     0.13900
H432        H  0.47192135  0.93698860  0.49925911     0.14400
C433        C  0.37267935  0.15976655  0.52111988    -0.15200
C434        C  0.36608593  0.15597426  0.48095528    -0.30300
H435        H  0.40100066  0.16237300  0.53099300     0.13900
H436        H  0.33775556  0.15592133  0.47098280     0.14400
C437        C  0.10614035  0.63920257  0.00355200    -0.15200
C438        C  0.14120720  0.62679096  0.99415101    -0.30300
H439        H  0.08801642  0.65215950  0.97994602     0.13900
H440        H  0.15840558  0.61303206  0.01837129     0.14400
C441        C  0.47580323  0.51241235  0.98949598    -0.15200
C442        C  0.50025560  0.47745050  0.00342457    -0.30300
H443        H  0.47630731  0.55443906  0.99860698     0.13900
H444        H  0.49970783  0.43545325  0.99421793     0.14400
C445        C  0.07493245  0.51352716  0.23868339    -0.15200
C446        C  0.07740067  0.46191183  0.25111180    -0.30300
H447        H  0.07560748  0.54651992  0.26024151     0.13900
H448        H  0.07669450  0.42897402  0.22950258     0.14400
C449        C  0.41350314  0.95757951  0.24522034    -0.15200
C450        C  0.41519347  0.01041263  0.25546758    -0.30300
H451        H  0.41484953  0.92720371  0.26826546     0.13900
H452        H  0.41071811  0.04068830  0.23289482     0.14400
C453        C  0.47039513  0.73172939  0.14861980    -0.15200
C454        C  0.50707817  0.72463194  0.14417756    -0.30300
H455        H  0.45250584  0.69775447  0.15539807     0.13900
H456        H  0.02689327  0.75847377  0.13146989     0.14400
C457        C  0.45210624  0.98427125  0.99755143    -0.15200
C458        C  0.48166605  0.96481747  0.97770080    -0.30300
H459        H  0.43545325  0.01619883  0.98560581     0.13900
H460        H  0.01997118  0.95838593  0.00138714     0.14400
C461        C  0.36540254  0.82241484  0.01276653    -0.15200
C462        C  0.37537105  0.83691672  0.97467965    -0.30300
H463        H  0.33715091  0.81016683  0.01870944     0.13900
H464        H  0.40363331  0.84979232  0.96943346     0.14400
C465        C  0.35881317  0.33645524  0.01111037    -0.15200
C466        C  0.34990870  0.34793754  0.97246701    -0.30300
H467        H  0.38717531  0.32768089  0.01812720     0.13900
H468        H  0.32138656  0.35673430  0.96612794     0.14400
C469        C  0.22850434  0.46617292  0.97560346    -0.15200
C470        C  0.25607276  0.48847867  0.99679658    -0.30300
H471        H  0.21177555  0.43329269  0.98716863     0.13900
H472        H  0.27269126  0.52151473  0.98528373     0.14400
C473        C  0.40806452  0.49495633  0.10593688    -0.15200
C474        C  0.43585260  0.48453663  0.13047508    -0.30300
H475        H  0.41085102  0.52518071  0.08280103     0.13900
H476        H  0.43215612  0.45605190  0.15471024     0.14400
C477        C  0.17796645  0.45083398  0.13814226    -0.15200
C478        C  0.15456600  0.45087641  0.10751628    -0.30300
H479        H  0.17251493  0.47495406  0.16489193     0.13900
H480        H  0.16046591  0.42818387  0.08014530     0.14400
C481        C  0.29122758  0.01512491  0.11461061    -0.15200
C482        C  0.30084485  0.96453036  0.12266508    -0.30300
H483        H  0.31201613  0.04443223  0.10572929     0.13900
H484        H  0.27955240  0.93478391  0.12910570     0.14400
C485        C  0.03869424  0.96659475  0.14087320    -0.15200
C486        C  0.06719082  0.95889367  0.11571927    -0.30300
H487        H  0.04006970  0.99818682  0.16358422     0.13900
H488        H  0.06501753  0.92916021  0.09167211     0.14400
C489        C  0.21455125  0.23577222  0.14492921    -0.15200
C490        C  0.25144460  0.24131718  0.15007798    -0.30300
H491        H  0.19804458  0.27130689  0.14071705     0.13900
H492        H  0.26782754  0.20589519  0.15511684     0.14400
C493        C  0.10739027  0.16438864  0.98404617    -0.15200
C494        C  0.09692594  0.15123891  0.02215607    -0.30300
H495        H  0.13590059  0.17517574  0.97800400     0.13900
H496        H  0.06830711  0.14024796  0.02742410     0.14400
C497        C  0.21699637  0.99701622  0.99577437    -0.15200
C498        C  0.25249421  0.98567298  0.00155355    -0.30300
H499        H  0.20633641  0.00433235  0.96603246     0.13900
H500        H  0.26315612  0.97838870  0.03130786     0.14400
C501        C  0.35142373  0.66252272  0.48754040    -0.15200
C502        C  0.38611395  0.66446176  0.50156857    -0.30300
H503        H  0.32917711  0.66147419  0.50954753     0.13900
H504        H  0.40851481  0.66763454  0.47987939     0.14400
C505        C  0.26922729  0.48628655  0.49035818    -0.15200
C506        C  0.23523937  0.50537616  0.49601024    -0.30300
H507        H  0.27824403  0.44987604  0.50477705     0.13900
H508        H  0.22636852  0.54189834  0.48165194     0.14400
C509        C  0.42872957  0.51317562  0.37165793    -0.15200
C510        C  0.43729680  0.46260096  0.37943109    -0.30300
H511        H  0.45010689  0.54174341  0.36298868     0.13900
H512        H  0.41600973  0.43436026  0.38889514     0.14400
C513        C  0.20034375  0.48824421  0.36732966    -0.15200
C514        C  0.17093051  0.50264984  0.38963313    -0.30300
H515        H  0.19803934  0.45763176  0.34398078     0.13900
H516        H  0.17308696  0.53407257  0.41241105     0.14400
C517        C  0.31637342  0.53153032  0.25076150    -0.15200
C518        C  0.31733365  0.47839615  0.24004486    -0.30300
H519        H  0.31024909  0.56158442  0.22854357     0.13900
H520        H  0.32443011  0.44883856  0.26228683     0.14400
C521        C  0.30850112  0.95078843  0.35619459    -0.15200
C522        C  0.32124261  0.98989454  0.38083149    -0.30300
H523        H  0.32692238  0.92738563  0.33724865     0.13900
H524        H  0.30174903  0.01174385  0.39965494     0.14400
C525        C  0.07228297  0.99916109  0.39012458    -0.15200
C526        C  0.06004694  0.04468255  0.37337706    -0.30300
H527        H  0.05229269  0.97350068  0.40532551     0.13900
H528        H  0.07910824  0.07237328  0.35893305     0.14400
C529        C  0.15315330  0.96225001  0.25492224    -0.15200
C530        C  0.16134355  0.01297937  0.24244191    -0.30300
H531        H  0.14128025  0.93289354  0.23436294     0.13900
H532        H  0.17069856  0.04300592  0.26402987     0.14400
C533        C  0.21519664  0.73975245  0.34842530    -0.15200
C534        C  0.25206546  0.73424105  0.34848517    -0.30300
H535        H  0.19707772  0.70482169  0.34841183     0.13900
H536        H  0.26917512  0.77033561  0.34791160     0.14400
C537        C  0.11146928  0.83270188  0.51092226    -0.15200
C538        C  0.14552640  0.84971659  0.50076069    -0.30300
H539        H  0.09358169  0.81653518  0.48775694     0.13900
H540        H  0.16261528  0.86607737  0.52462727     0.14400
C541        C  0.24170592  0.01911408  0.47863769    -0.15200
C542        C  0.27279265  0.00123183  0.49597110    -0.30300
H543        H  0.22570730  0.05167838  0.49157636     0.13900
H544        H  0.28923252  0.96937221  0.48273937     0.14400
O545        O  0.64824997  0.83362700  0.42522641    -0.84100
O546        O  0.61462415  0.91846333  0.39224626    -0.81100
C547        C  0.61032027  0.96722709  0.38482671     0.99400
O548        O  0.63739607  0.99615666  0.37408251    -0.81200
O549        O  0.69526755  0.99929323  0.43014654    -0.83800
C550        C  0.72438193  0.98728604  0.44794683     1.03900
O551        O  0.74326349  0.94854994  0.43621485    -0.76600
O552        O  0.69484827  0.87146055  0.45719254    -0.76800
C553        C  0.66421910  0.84750739  0.45812439     1.03900
O554        O  0.68355613  0.81343512  0.34302693    -0.84100
O555        O  0.64804953  0.90432496  0.31338759    -0.81100
C556        C  0.66565122  0.94275242  0.29609304     0.99400
O557        O  0.68961772  0.96986588  0.31441502    -0.81200
O558        O  0.74738495  0.98053976  0.36554406    -0.83800
C559        C  0.77088000  0.94336894  0.36058913     1.03900
O560        O  0.76154970  0.89481357  0.36525821    -0.76600
O561        O  0.72036731  0.80735772  0.39350791    -0.76700
C562        C  0.70867204  0.78923001  0.36093962     1.03800
Cr563      Cr  0.65186464  0.86998163  0.36926187     1.93700
Cr564      Cr  0.69210001  0.98069229  0.37224825     1.93200
Cr565      Cr  0.72663053  0.88244593  0.41027755     1.39100
O566        O  0.68981645  0.91091576  0.38319875    -1.21800
O567        O  0.86579432  0.62591528  0.40659540    -0.84100
O568        O  0.87865869  0.54495859  0.35316570    -0.81100
C569        C  0.88215052  0.50569533  0.37654125     0.99400
O570        O  0.85496491  0.48612520  0.39525195    -0.81200
O571        O  0.78381872  0.47435016  0.42504607    -0.83800
C572        C  0.78345856  0.50030070  0.45737900     1.03900
O573        O  0.79496914  0.54763362  0.45872992    -0.76600
O574        O  0.81577647  0.64716509  0.44008045    -0.76800
C575        C  0.85054158  0.64323725  0.43843044     1.03900
O576        O  0.81154960  0.67114057  0.35281015    -0.84100
O577        O  0.82110232  0.57947943  0.30195443    -0.81100
C578        C  0.82283266  0.53028522  0.29148184     0.99400
O579        O  0.82637582  0.49477863  0.31753087    -0.81200
O580        O  0.75627447  0.49993973  0.35012507    -0.83800
C581        C  0.72991934  0.51651310  0.37174841     1.03900
O582        O  0.73540403  0.54757043  0.40167510    -0.76600
O583        O  0.75835621  0.64553892  0.37774840    -0.76700
C584        C  0.77752520  0.67899054  0.35874577     1.03800
Cr585      Cr  0.84160985  0.60336433  0.35522565     1.93700
Cr586      Cr  0.80586585  0.49439056  0.37275296     1.93200
Cr587      Cr  0.77836551  0.59508015  0.41671387     1.39100
O588        O  0.80821800  0.56483898  0.38119039    -1.21800
O589        O  0.61275318  0.11198434  0.08048062    -0.84100
O590        O  0.60225684  0.03183703  0.13683893    -0.81100
C591        C  0.60027550  0.98894643  0.11609531     0.99400
O592        O  0.62775717  0.97226461  0.09658334    -0.81200
O593        O  0.69540844  0.97469566  0.05837035    -0.83800
C594        C  0.69296743  0.00309718  0.02761913     1.03900
O595        O  0.67989421  0.04921476  0.02968161    -0.76600
O596        O  0.66241114  0.14856033  0.05667874    -0.76800
C597        C  0.62911108  0.13614347  0.05194601     1.03900
O598        O  0.66693305  0.16555674  0.13615655    -0.84100
O599        O  0.65848517  0.07398307  0.18728209    -0.81100
C600        C  0.66146690  0.02502966  0.19773526     0.99400
O601        O  0.66261805  0.98805181  0.17157221    -0.81200
O602        O  0.73001326  0.00057361  0.13125028    -0.83800
C603        C  0.75371724  0.02107510  0.10764138     1.03900
O604        O  0.74417986  0.05014901  0.07903736    -0.76600
O605        O  0.72117467  0.14122021  0.11379853    -0.76700
C606        C  0.70138034  0.17492674  0.13160263     1.03800
Cr607      Cr  0.63749938  0.09441677  0.13355961     1.93700
Cr608      Cr  0.67820952  0.98935143  0.11402081     1.93200
Cr609      Cr  0.69979813  0.09460215  0.07234891     1.39100
O610        O  0.67233236  0.05946410  0.10764013    -1.21800
O611        O  0.83366220  0.33770133  0.06481159    -0.84100
O612        O  0.86981138  0.41836545  0.10441338    -0.81100
C613        C  0.87212846  0.46862962  0.10603890     0.99400
O614        O  0.84478397  0.49745920  0.11265243    -0.81200
O615        O  0.78791788  0.49742429  0.06179260    -0.83800
C616        C  0.75929543  0.48302043  0.04413273     1.03900
O617        O  0.73795144  0.45018550  0.06023288    -0.76600
O618        O  0.78574701  0.37307166  0.03447292    -0.76800
C619        C  0.81715937  0.35205346  0.03259630     1.03900
O620        O  0.79699614  0.31213914  0.14624653    -0.84100
O621        O  0.83304284  0.40185897  0.17943375    -0.81100
C622        C  0.81859086  0.44370059  0.19545482     0.99400
O623        O  0.79779667  0.47373246  0.17635859    -0.81200
O624        O  0.73832860  0.48086233  0.13098292    -0.83800
C625        C  0.71592592  0.44288014  0.13853627     1.03900
O626        O  0.72324168  0.39457554  0.12993814    -0.76600
O627        O  0.75994340  0.30715833  0.09609129    -0.76700
C628        C  0.77120834  0.28840330  0.12812718     1.03800
Cr629      Cr  0.83007732  0.36982187  0.12267258     1.93700
Cr630      Cr  0.79217654  0.48157199  0.11933839     1.93200
Cr631      Cr  0.75512082  0.38312959  0.08270517     1.39100
O632        O  0.79315887  0.41137115  0.10904937    -1.21800
O633        O  0.92049907  0.85999510  0.04266278    -0.84100
O634        O  0.97583502  0.93792918  0.05366371    -0.81100
C635        C  0.95609858  0.97310323  0.03995565     0.99400
O636        O  0.92637444  0.98371329  0.05733119    -0.81200
O637        O  0.86831571  0.97825224  0.10913468    -0.83800
C638        C  0.84373595  0.94837815  0.12424637     1.03900
O639        O  0.85138765  0.90427091  0.13933834    -0.76600
O640        O  0.87910621  0.82829440  0.08685746    -0.76800
C641        C  0.88848334  0.84128492  0.05049134     1.03900
O642        O  0.95932636  0.79918321  0.09784077    -0.84100
O643        O  0.49573348  0.89814645  0.12250805    -0.81100
C644        C  0.50003447  0.94836208  0.12835781     0.99400
O645        O  0.47422510  0.98132193  0.12224137    -0.81200
O646        O  0.91661585  0.97883956  0.17538308    -0.83800
C647        C  0.91407274  0.94475828  0.20294297     1.03900
O648        O  0.90887678  0.89497041  0.19518726    -0.76600
O649        O  0.93348096  0.80594871  0.15576414    -0.76700
C650        C  0.95472991  0.78170499  0.13229649     1.03800
Cr651      Cr  0.95962749  0.87506686  0.08238443     1.93700
Cr652      Cr  0.92241869  0.97445200  0.11664642     1.93200
Cr653      Cr  0.89585210  0.86080313  0.14160632     1.39100
O654        O  0.92574348  0.90370059  0.11462520    -1.21800
O655        O  0.55623878  0.64172936  0.05775540    -0.84100
O656        O  0.53639747  0.54150007  0.03556926    -0.81100
C657        C  0.52397552  0.49455943  0.03565405     0.99400
O658        O  0.52471063  0.46706327  0.06703804    -0.81200
O659        O  0.59561925  0.47276557  0.09556165    -0.83800
C660        C  0.62305285  0.48896906  0.11488491     1.03900
O661        O  0.62208519  0.53213643  0.13536123    -0.76600
O662        O  0.60829049  0.61195573  0.07976649    -0.76800
C663        C  0.59027632  0.63422236  0.05220160     1.03900
O664        O  0.00323529  0.63391663  0.11671344    -0.84100
O665        O  0.97738912  0.53774077  0.09057899    -0.81100
C666        C  0.97151322  0.50831190  0.12074435     0.99400
O667        O  0.99758585  0.49394200  0.14259245    -0.81200
O668        O  0.56786650  0.48658404  0.17509166    -0.83800
C669        C  0.56856522  0.52391990  0.20099756     1.03900
O670        O  0.56896232  0.57290028  0.19003174    -0.76600
O671        O  0.55753655  0.66307709  0.13806721    -0.76700
C672        C  0.52298216  0.67083535  0.13648282     1.03800
Cr673      Cr  0.52032983  0.58710096  0.07997465     1.93700
Cr674      Cr  0.54732339  0.48520938  0.11988534     1.93200
Cr675      Cr  0.58677564  0.59325922  0.13444922     1.39100
O676        O  0.55115448  0.55540700  0.11214015    -1.21800
O677        O  0.92616622  0.13707401  0.45478522    -0.84100
O678        O  0.97859060  0.06029125  0.44769049    -0.81100
C679        C  0.96313913  0.01601484  0.45406425     0.99400
O680        O  0.93681939  0.99999039  0.43281299    -0.81200
O681        O  0.88687785  0.99764764  0.36909250    -0.83800
C682        C  0.85889029  0.02579902  0.37701121     1.03900
O683        O  0.86187755  0.07528661  0.38369028    -0.76600
O684        O  0.89015687  0.17003488  0.40903275    -0.76800
C685        C  0.89710221  0.16122075  0.44589908     1.03900
O686        O  0.96181909  0.19230968  0.39003503    -0.84100
O687        O  0.50881629  0.09493193  0.38302672    -0.81100
C688        C  0.51960297  0.04702268  0.37765066     0.99400
O689        O  0.49666036  0.00792764  0.37820055    -0.81200
O690        O  0.94602326  0.02077983  0.31637094    -0.83800
C691        C  0.92142339  0.04030101  0.29490747     1.03900
O692        O  0.90067516  0.07729387  0.30840448    -0.76600
O693        O  0.93509091  0.17242329  0.33348231    -0.76700
C694        C  0.95650449  0.20187420  0.35364590     1.03800
Cr695      Cr  0.96632928  0.12145409  0.41529059     1.93700
Cr696      Cr  0.94108794  0.01532407  0.37483803     1.93200
Cr697      Cr  0.89999637  0.12150243  0.36010341     1.39100
O698        O  0.93584035  0.08584218  0.38287587    -1.21800
O699        O  0.56298565  0.31633350  0.43648572    -0.84100
O700        O  0.54109097  0.41227126  0.46633542    -0.81100
C701        C  0.53095263  0.46001358  0.46732664     0.99400
O702        O  0.53142783  0.48847593  0.43627767    -0.81200
O703        O  0.60111465  0.49145616  0.40297242    -0.83800
C704        C  0.62949283  0.47485463  0.38505173     1.03900
O705        O  0.62812332  0.43343355  0.36288588    -0.76600
O706        O  0.61412409  0.35450091  0.41905538    -0.76800
C707        C  0.59484261  0.33156362  0.44591011     1.03900
O708        O  0.00766643  0.34461309  0.36530152    -0.84100
O709        O  0.98495317  0.44014719  0.39424567    -0.81100
C710        C  0.98257403  0.47218893  0.36543923     0.99400
O711        O  0.01074947  0.48818178  0.34655779    -0.81200
O712        O  0.56978809  0.47731025  0.32516805    -0.83800
C713        C  0.57206458  0.44050719  0.29887972     1.03900
O714        O  0.57524600  0.39152916  0.30914381    -0.76600
O715        O  0.56474069  0.30001887  0.35899027    -0.76700
C716        C  0.53006544  0.29212153  0.35864197     1.03800
Cr717      Cr  0.52623357  0.36974175  0.41948031     1.93700
Cr718      Cr  0.55150134  0.47576913  0.38174243     1.93200
Cr719      Cr  0.59310267  0.37121435  0.36406519     1.39100
O720        O  0.55656582  0.40587843  0.38767240    -1.21800
O721        O  0.81678244  0.15149125  0.54013017    -0.84100
O722        O  0.76387332  0.07476698  0.54370884    -0.81100
C723        C  0.78309331  0.03616193  0.53281455     0.99400
O724        O  0.80937755  0.02120305  0.55400142    -0.81200
O725        O  0.85839461  0.01688801  0.61810072    -0.83800
C726        C  0.88600191  0.04839872  0.61832292     1.03900
O727        O  0.88220158  0.09824851  0.61869805    -0.76600
O728        O  0.85269470  0.18537361  0.58698512    -0.76800
C729        C  0.84689353  0.17318530  0.54999510     1.03900
O730        O  0.77904605  0.20713077  0.60277195    -0.84100
O731        O  0.73315732  0.11591142  0.61255263    -0.81100
C732        C  0.72392916  0.06660623  0.61409968     0.99400
O733        O  0.74812691  0.02995733  0.61053068    -0.81200
O734        O  0.79846267  0.02856504  0.67192996    -0.83800
C735        C  0.81705286  0.05476589  0.69722627     1.03900
O736        O  0.83490508  0.09705988  0.68758838    -0.76600
O737        O  0.80152853  0.18835730  0.66059332    -0.76700
C738        C  0.78090752  0.21642110  0.63962748     1.03800
Cr739      Cr  0.77601762  0.13520276  0.57784743     1.93700
Cr740      Cr  0.80391180  0.03008166  0.61314414     1.93200
Cr741      Cr  0.83982814  0.14000246  0.63655685     1.39100
O742        O  0.80677851  0.10127734  0.61002483    -1.21800
O743        O  0.68154235  0.34118118  0.55729537    -0.84100
O744        O  0.70144707  0.44142406  0.53484507    -0.81100
C745        C  0.71105806  0.48985748  0.53599443     0.99400
O746        O  0.70704081  0.51769856  0.56740568    -0.81200
O747        O  0.63424901  0.50963707  0.58987838    -0.83800
C748        C  0.60524370  0.49065750  0.60511833     1.03900
O749        O  0.60563568  0.44903810  0.62646012    -0.76600
O750        O  0.62692232  0.36970525  0.57235690    -0.76800
C751        C  0.64894117  0.34918598  0.54678296     1.03900
O752        O  0.72826826  0.35441310  0.62639171    -0.84100
O753        O  0.75263079  0.44835232  0.59788600    -0.81100
C754        C  0.75579009  0.47920941  0.62787786     0.99400
O755        O  0.72789665  0.49577564  0.64688309    -0.81200
O756        O  0.65492601  0.50000087  0.67138946    -0.83800
C757        C  0.65338442  0.46339571  0.69716164     1.03900
O758        O  0.65441177  0.41405949  0.68612468    -0.76600
O759        O  0.67261345  0.32289149  0.63617537    -0.76700
C760        C  0.70729761  0.31777168  0.63863948     1.03800
Cr761      Cr  0.71343869  0.39841087  0.58123574     1.93700
Cr762      Cr  0.68063841  0.50031643  0.61824367     1.93200
Cr763      Cr  0.64231751  0.39067491  0.62921474     1.39100
O764        O  0.67897736  0.42981706  0.61017910    -1.21800
O765        O  0.80944349  0.86437568  0.94789470    -0.84100
O766        O  0.78650819  0.96528712  0.96047236    -0.81100
C767        C  0.77141927  0.00971131  0.95737696     0.99400
O768        O  0.77133870  0.03306684  0.92448245    -0.81200
O769        O  0.84317376  0.02721946  0.89566564    -0.83800
C770        C  0.87124514  0.00966795  0.87762998     1.03900
O771        O  0.86975513  0.96613428  0.85723272    -0.76600
O772        O  0.85833597  0.88565644  0.91217171    -0.76800
C773        C  0.84419699  0.86786574  0.94442312     1.03900
O774        O  0.75190462  0.85326970  0.88611222    -0.84100
O775        O  0.72595496  0.95200755  0.90443715    -0.81100
C776        C  0.71939607  0.98039292  0.87386603     0.99400
O777        O  0.74519210  0.99691566  0.85127468    -0.81200
O778        O  0.81542848  0.00656006  0.81860382    -0.83800
C779        C  0.81381249  0.96886158  0.79335237     1.03900
O780        O  0.81373553  0.92055299  0.80532144    -0.76600
O781        O  0.80519276  0.83235568  0.85911346    -0.76700
C782        C  0.77171068  0.82067756  0.86704071     1.03800
Cr783      Cr  0.77067514  0.91078488  0.92179113     1.93700
Cr784      Cr  0.79456613  0.01002687  0.87352173     1.93200
Cr785      Cr  0.83401255  0.90327035  0.86006911     1.39100
O786        O  0.79934325  0.94051958  0.88467144    -1.21800
O787        O  0.68998434  0.61345419  0.95806012    -0.84100
O788        O  0.73524574  0.53403647  0.93066578    -0.81100
C789        C  0.71333077  0.50144839  0.94618236     0.99400
O790        O  0.68420814  0.48912402  0.92850428    -0.81200
O791        O  0.62685213  0.49451381  0.87670740    -0.83800
C792        C  0.60141646  0.52440236  0.88863626     1.03900
O793        O  0.60593434  0.57400102  0.89275703    -0.76600
O794        O  0.64344393  0.65319555  0.92864594    -0.76800
C795        C  0.65927675  0.63649934  0.96052358     1.03900
O796        O  0.71722061  0.67935944  0.89638875    -0.84100
O797        O  0.75182136  0.59008799  0.86196130    -0.81100
C798        C  0.75808422  0.54141510  0.85327484     0.99400
O799        O  0.73438615  0.50471517  0.85981921    -0.81200
O800        O  0.67535387  0.51702484  0.81410605    -0.83800
C801        C  0.65400482  0.54732445  0.79602307     1.03900
O802        O  0.63972994  0.58858627  0.81355104    -0.76600
O803        O  0.67862409  0.67824703  0.84723299    -0.76700
C804        C  0.70473410  0.70094917  0.86585995     1.03800
Cr805      Cr  0.72015291  0.60271969  0.90928108     1.93700
Cr806      Cr  0.68035007  0.50719936  0.87107045     1.93200
Cr807      Cr  0.64510637  0.62078673  0.87095477     1.39100
O808        O  0.68141915  0.57728190  0.88275926    -1.21800
O809        O  0.61697734  0.85717130  0.57902393    -0.84100
O810        O  0.63129397  0.93902548  0.63297948    -0.81100
C811        C  0.63572664  0.97923261  0.61082570     0.99400
O812        O  0.60887644  0.99861158  0.59223774    -0.81200
O813        O  0.54081686  0.99455548  0.55310010    -0.83800
C814        C  0.53915840  0.96221029  0.52367216     1.03900
O815        O  0.54570872  0.91342847  0.52694346    -0.76600
O816        O  0.56585614  0.82067121  0.55935084    -0.76800
C817        C  0.59908094  0.83239291  0.55198372     1.03900
O818        O  0.56401334  0.81084136  0.63800389    -0.84100
O819        O  0.57385125  0.90591407  0.68516215    -0.81100
C820        C  0.57126463  0.95559632  0.69440288     0.99400
O821        O  0.57083405  0.99106231  0.66751560    -0.81200
O822        O  0.99707331  0.98404442  0.63398888    -0.83800
C823        C  0.97195031  0.96138609  0.61372819     1.03900
O824        O  0.97954679  0.92697833  0.58708255    -0.76600
O825        O  0.00768484  0.84170195  0.62375426    -0.76700
C826        C  0.52933012  0.80427835  0.63758557     1.03800
Cr827      Cr  0.59394888  0.88007121  0.63204396     1.93700
Cr828      Cr  0.55657336  0.98622521  0.60968736     1.93200
Cr829      Cr  0.52936365  0.87714976  0.57505682     1.39100
O830        O  0.55978499  0.91515917  0.60593098    -1.21800
O831        O  0.87086451  0.63219863  0.58129004    -0.84100
O832        O  0.85946479  0.55432288  0.63677455    -0.81100
C833        C  0.85616259  0.51262838  0.61507967     0.99400
O834        O  0.88313265  0.49351439  0.59590278    -0.81200
O835        O  0.95373157  0.48446234  0.56424640    -0.83800
C836        C  0.95407287  0.50785462  0.53122109     1.03900
O837        O  0.94328603  0.55516264  0.52860185    -0.76600
O838        O  0.92025604  0.65454359  0.54688265    -0.76800
C839        C  0.88560141  0.64823228  0.54892332     1.03900
O840        O  0.92506602  0.68377192  0.63422982    -0.84100
O841        O  0.91653615  0.59537612  0.68666149    -0.81100
C842        C  0.91553128  0.54669552  0.69778866     0.99400
O843        O  0.91350712  0.50954202  0.67215367    -0.81200
O844        O  0.48002572  0.51849636  0.63925855    -0.83800
C845        C  0.50732669  0.53443372  0.61902988     1.03900
O846        O  0.50353619  0.56549740  0.58971341    -0.76600
O847        O  0.97816039  0.65976676  0.60874670    -0.76700
C848        C  0.95912107  0.69241574  0.62864457     1.03800
Cr849      Cr  0.89572140  0.61447412  0.63286615     1.93700
Cr850      Cr  0.93263341  0.50671303  0.61665930     1.96400
Cr851      Cr  0.95856621  0.60615509  0.57043380     1.39100
O852        O  0.92924953  0.57626217  0.60685845    -1.21800
O853        O  0.58009538  0.13828267  0.92652780    -0.84100
O854        O  0.61541306  0.06060033  0.88056841    -0.81100
C855        C  0.61677998  0.01046989  0.88423927     0.99400
O856        O  0.58834423  0.98146672  0.88281799    -0.81200
O857        O  0.52628806  0.97963369  0.92744126    -0.83800
C858        C  0.49608565  0.99187801  0.94294465     1.03900
O859        O  0.47847433  0.02970711  0.92927608    -0.76600
O860        O  0.53120170  0.10184234  0.95695428    -0.76800
C861        C  0.56298753  0.12295862  0.95880364     1.03900
O862        O  0.54305441  0.16956337  0.84705570    -0.84100
O863        O  0.57632070  0.08301945  0.80909070    -0.81100
C864        C  0.56487414  0.03881609  0.79347742     0.99400
O865        O  0.54772201  0.00442251  0.81387265    -0.81200
O866        O  0.99438581  0.01425065  0.86974592    -0.83800
C867        C  0.97059138  0.05040684  0.86417225     1.03900
O868        O  0.97712335  0.09977702  0.87178472    -0.76600
O869        O  0.01870730  0.19224493  0.89354114    -0.76700
C870        C  0.51833585  0.19308762  0.86688646     1.03800
Cr871      Cr  0.57538301  0.11030124  0.86725116     1.93700
Cr872      Cr  0.53641174  0.99780508  0.87086227     1.93200
Cr873      Cr  0.50036222  0.09597943  0.90897240     1.39100
O874        O  0.53807194  0.06790022  0.88147791    -1.21800
O875        O  0.86731458  0.37311607  0.91286586    -0.84100
O876        O  0.85373889  0.45258605  0.85678176    -0.81100
C877        C  0.85173734  0.49517593  0.87780467     0.99400
O878        O  0.87862059  0.51141208  0.89809004    -0.81200
O879        O  0.94882831  0.51757513  0.92838075    -0.83800
C880        C  0.94897282  0.48920365  0.95922156     1.03900
O881        O  0.93750009  0.44185792  0.95830506    -0.76600
O882        O  0.91915918  0.34235298  0.93453816    -0.76800
C883        C  0.88529243  0.35070156  0.94040418     1.03900
O884        O  0.91898036  0.32241832  0.85527917    -0.84100
O885        O  0.90898070  0.41301127  0.80403930    -0.81100
C886        C  0.91029351  0.46220685  0.79376703     0.99400
O887        O  0.90878844  0.49913482  0.81982315    -0.81200
O888        O  0.48403894  0.48136561  0.85027378    -0.83800
C889        C  0.50780288  0.46351682  0.87377301     1.03900
O890        O  0.49865077  0.43821274  0.90524337    -0.76600
O891        O  0.97407512  0.35142572  0.87065788    -0.76700
C892        C  0.95358159  0.31517089  0.85669312     1.03800
Cr893      Cr  0.88954338  0.39199775  0.85860217     1.93700
Cr894      Cr  0.92782024  0.50033869  0.87513249     1.93200
Cr895      Cr  0.95512642  0.39775387  0.91390494     1.39100
O896        O  0.92458486  0.42991023  0.88179544    -1.21800
C897        C  0.00641386  0.25511023  0.84377775    -0.15200
C898        C  0.96975326  0.26166633  0.84875788    -0.30300
H899        H  0.02398230  0.28926909  0.83660095     0.13900
H900        H  0.44750503  0.22162749  0.85673020     0.14400
C901        C  0.91483532  0.53106132  0.74046693    -0.15200
C902        C  0.91240900  0.47845942  0.75130456    -0.30300
H903        H  0.91569569  0.56275121  0.76307854     0.13900
H904        H  0.91172834  0.44682362  0.72864544     0.14400
C905        C  0.56840322  0.97281540  0.73718634    -0.15200
C906        C  0.57129023  0.02479714  0.75030880    -0.30300
H907        H  0.56327198  0.94119022  0.75876832     0.13900
H908        H  0.57825803  0.05656141  0.72943777     0.14400
C909        C  0.97609681  0.74379659  0.64188230    -0.15200
C910        C  0.01299463  0.75204508  0.64252495    -0.30300
H911        H  0.95774984  0.77761378  0.64573740     0.13900
H912        H  0.52965207  0.71819266  0.65085257     0.14400
C913        C  0.79539778  0.52403692  0.84587762    -0.15200
C914        C  0.81871986  0.52769857  0.87666861    -0.30300
H915        H  0.80071026  0.49674264  0.82086472     0.13900
H916        H  0.81255479  0.55342257  0.90242607     0.14400
C917        C  0.56521757  0.50134307  0.89669527    -0.15200
C918        C  0.54632323  0.47763778  0.86705403    -0.30300
H919        H  0.55207506  0.50978368  0.92552090     0.13900
H920        H  0.55778107  0.47538340  0.83682208     0.14400
C921        C  0.90558143  0.04130443  0.87929957    -0.15200
C922        C  0.93364978  0.03167882  0.85396893    -0.30300
H923        H  0.90861767  0.07109845  0.90319176     0.13900
H924        H  0.93116590  0.00019835  0.83128024     0.14400
C925        C  0.68183284  0.99965696  0.86681415    -0.15200
C926        C  0.65272678  0.98503252  0.88959111    -0.30300
H927        H  0.67832837  0.02942193  0.84358327     0.13900
H928        H  0.65506564  0.95326333  0.91144541     0.14400
C929        C  0.75650759  0.76587296  0.85851947    -0.15200
C930        C  0.71995203  0.75480401  0.85508262    -0.30300
H931        H  0.77550756  0.73274716  0.86084464     0.13900
H932        H  0.70072456  0.78714090  0.85057141     0.14400
C933        C  0.79242286  0.49977874  0.63697617    -0.15200
C934        C  0.82080812  0.48552285  0.61308380    -0.30300
H935        H  0.79557671  0.53007804  0.66043912     0.13900
H936        H  0.81774026  0.45460702  0.59003813     0.14400
C937        C  0.57094583  0.51887253  0.60021568    -0.15200
C938        C  0.54326977  0.51208494  0.62662562    -0.30300
H939        H  0.56846420  0.54548662  0.57480169     0.13900
H940        H  0.54624038  0.48619386  0.65240079     0.14400
C941        C  0.65169196  0.47988602  0.74030492    -0.15200
C942        C  0.64668534  0.53175945  0.75335678    -0.30300
H943        H  0.65730062  0.44888372  0.76200500     0.13900
H944        H  0.63915752  0.56273303  0.73240821     0.14400
C945        C  0.93316098  0.97691334  0.61838547    -0.15200
C946        C  0.92412937  0.02875849  0.61914821    -0.30300
H947        H  0.91188932  0.94624084  0.61525148     0.13900
H948        H  0.94602391  0.05887526  0.61962310     0.14400
C949        C  0.68432026  0.05086849  0.61585845    -0.15200
C950        C  0.67365244  0.00028801  0.60647092    -0.30300
H951        H  0.66391984  0.08077269  0.62376454     0.13900
H952        H  0.69445058  0.97049159  0.59966604     0.14400
C953        C  0.81274553  0.98382916  0.75022082    -0.15200
C954        C  0.81823931  0.03582029  0.73917279    -0.30300
H955        H  0.80746968  0.95290271  0.72773861     0.13900
H956        H  0.82548424  0.06583827  0.76170332     0.14400
C957        C  0.76034175  0.26228809  0.65621119    -0.15200
C958        C  0.72394209  0.26599066  0.64913842    -0.30300
H959        H  0.77622416  0.29791913  0.66420632     0.13900
H960        H  0.70822101  0.22985980  0.64197251     0.14400
C961        C  0.00665655  0.50829570  0.48776902    -0.15200
C962        C  0.97509688  0.48417825  0.49879834    -0.30300
H963        H  0.01390103  0.54821302  0.49882653     0.13900
H964        H  0.96774477  0.44430344  0.48776575     0.14400
C965        C  0.60558976  0.32925181  0.48938916    -0.15200
C966        C  0.63951868  0.34013860  0.50331841    -0.30300
H967        H  0.58367551  0.32195511  0.51112137     0.13900
H968        H  0.66180614  0.34487139  0.48163422     0.14400
C969        C  0.01123013  0.25539311  0.34188883    -0.15200
C970        C  0.97470935  0.24953916  0.33685547    -0.30300
H971        H  0.02774801  0.21998316  0.34676444     0.13900
H972        H  0.95772322  0.28421505  0.33133096     0.14400
C973        C  0.52205276  0.97990675  0.48781238    -0.15200
C974        C  0.98020071  0.98215972  0.48341499    -0.30300
H975        H  0.03195744  0.02238305  0.47637432     0.13900
H976        H  0.96406503  0.95193824  0.49925927     0.14400
C977        C  0.87644564  0.17953433  0.51817444    -0.15200
C978        C  0.86929024  0.17535233  0.47810269    -0.30300
H979        H  0.90482699  0.18057150  0.52795287     0.13900
H980        H  0.84085854  0.17688327  0.46859700     0.14400
C981        C  0.60719788  0.64836939  0.01189735    -0.15200
C982        C  0.64298392  0.64047738  0.00235259    -0.30300
H983        H  0.58864467  0.65964819  0.98818912     0.13900
H984        H  0.66086555  0.62815513  0.02641330     0.14400
C985        C  0.97205309  0.50553075  0.99164252    -0.15200
C986        C  0.99861836  0.47193660  0.00232557    -0.30300
H987        H  0.97095867  0.54665765  0.00281866     0.13900
H988        H  0.99994509  0.43085502  0.99110926     0.14400
C989        C  0.56987116  0.50859264  0.24408530    -0.15200
C990        C  0.57159701  0.45633276  0.25587860    -0.30300
H991        H  0.56932858  0.54063245  0.26641945     0.13900
H992        H  0.57252687  0.42436850  0.23348966     0.14400
C993        C  0.91813800  0.96519028  0.24485891    -0.15200
C994        C  0.91601709  0.01848951  0.25381784    -0.30300
H995        H  0.92315181  0.93663305  0.26851588     0.13900
H996        H  0.90823454  0.04659684  0.23081606     0.14400
C997        C  0.97272950  0.73111955  0.14340830    -0.15200
C998        C  0.00920983  0.72390983  0.13725231    -0.30300
H999        H  0.95503632  0.69717695  0.15087834     0.13900
H1000       H  0.52486128  0.75928952  0.13915193     0.14400
C1001       C  0.96960966  0.00167148  0.00503541    -0.15200
C1002       C  0.00296912  0.98967881  0.98911134    -0.30300
H1003       H  0.95251718  0.03277122  0.99265546     0.13900
H1004       H  0.49794642  0.93242634  0.98961749     0.14400
C1005       C  0.86085409  0.83863295  0.01649313    -0.15200
C1006       C  0.86992422  0.85410628  0.97828136    -0.30300
H1007       H  0.83227153  0.83003594  0.02390727     0.13900
H1008       H  0.89875961  0.86242870  0.97187890     0.14400
C1009       C  0.83332351  0.34770977  0.99083193    -0.15200
C1010       C  0.86869630  0.33773128  0.98098064    -0.30300
H1011       H  0.81553980  0.36060238  0.96684384     0.13900
H1012       H  0.88720128  0.32556581  0.00447573     0.14400
C1013       C  0.72229936  0.48038685  0.98478686    -0.15200
C1014       C  0.75051999  0.50246134  0.00509672    -0.30300
H1015       H  0.70513958  0.44850601  0.99717115     0.13900
H1016       H  0.76764846  0.53441334  0.99273533     0.14400
C1017       C  0.90772741  0.49478837  0.10119096    -0.15200
C1018       C  0.93468564  0.48565198  0.12726632    -0.30300
H1019       H  0.91121391  0.52354502  0.07714645     0.13900
H1020       H  0.93013846  0.45829725  0.15207567     0.14400
C1021       C  0.67848270  0.45812610  0.14680514    -0.15200
C1022       C  0.65552728  0.45568082  0.11572655    -0.30300
H1023       H  0.67288404  0.48427583  0.17241807     0.13900
H1024       H  0.66185086  0.43105587  0.08942727     0.14400
C1025       C  0.79305426  0.00979217  0.11070789    -0.15200
C1026       C  0.80482172  0.96355319  0.12519375    -0.30300
H1027       H  0.81247205  0.03757050  0.09680368     0.13900
H1028       H  0.78503854  0.93494489  0.13749958     0.14400
C1029       C  0.53632582  0.97125603  0.13728102    -0.15200
C1030       C  0.56580591  0.95736454  0.11514669    -0.30300
H1031       H  0.53747428  0.00668351  0.15658304     0.13900
H1032       H  0.56392631  0.92374535  0.09413623     0.14400
C1033       C  0.71797093  0.22843027  0.14084678    -0.15200
C1034       C  0.75494305  0.23673781  0.14166518    -0.30300
H1035       H  0.69992894  0.26279610  0.13951345     0.13900
H1036       H  0.77332949  0.20300202  0.14456464     0.14400
C1037       C  0.57880408  0.12626613  0.00062323    -0.15200
C1038       C  0.61196366  0.14620539  0.01150174    -0.30300
H1039       H  0.56246799  0.10677755  0.02387892     0.13900
H1040       H  0.62899477  0.16539745  0.98874221     0.14400
C1041       C  0.71688599  0.99029734  0.99460284    -0.15200
C1042       C  0.74424164  0.02516725  0.98653105    -0.30300
H1043       H  0.71697741  0.94956058  0.98262559     0.13900
H1044       H  0.74472936  0.06573426  0.99886200     0.14400
C1045       C  0.87425994  0.65556346  0.47434737    -0.15200
C1046       C  0.86151738  0.65604352  0.51287624    -0.30300
H1047       H  0.90382325  0.65524692  0.46935827     0.13900
H1048       H  0.83200520  0.65308324  0.51790147     0.14400
C1049       C  0.76143861  0.48001430  0.49002248    -0.15200
C1050       C  0.73415364  0.51060585  0.50432267    -0.30300
H1051       H  0.76406373  0.43829609  0.49861638     0.13900
H1052       H  0.73147350  0.55226925  0.49557617     0.14400
C1053       C  0.91780130  0.48116265  0.38075975    -0.15200
C1054       C  0.94649359  0.49387746  0.35681832    -0.30300
H1055       H  0.92045998  0.45218967  0.40466627     0.13900
H1056       H  0.94384585  0.52250640  0.33269821     0.14400
C1057       C  0.69289253  0.49498214  0.36417513    -0.15200
C1058       C  0.66452435  0.50413985  0.38944511    -0.30300
H1059       H  0.68961351  0.46736449  0.33894421     0.13900
H1060       H  0.66735673  0.53232612  0.41436848     0.14400
C1061       C  0.82061654  0.51260563  0.24916261    -0.15200
C1062       C  0.82592045  0.46059683  0.23733667    -0.30300
H1063       H  0.81307455  0.54258946  0.22741415     0.13900
H1064       H  0.83523459  0.43086775  0.25840764     0.14400
C1065       C  0.81024171  0.95850200  0.35795259    -0.15200
C1066       C  0.82143580  0.00314558  0.37769178    -0.30300
H1067       H  0.82983316  0.93237504  0.34286956     0.13900
H1068       H  0.80109856  0.02749928  0.39340815     0.14400
C1069       C  0.57210519  0.98758241  0.38793971    -0.15200
C1070       C  0.55969191  0.03501372  0.37451638    -0.30300
H1071       H  0.55216161  0.95936320  0.40041962     0.13900
H1072       H  0.57877497  0.06506297  0.36302392     0.14400
C1073       C  0.65831415  0.95816665  0.25376864    -0.15200
C1074       C  0.66420869  0.00943467  0.24071708    -0.30300
H1075       H  0.64801228  0.92753106  0.23321459     0.13900
H1076       H  0.67211419  0.04059746  0.26209934     0.14400
C1077       C  0.72414195  0.73788079  0.34658668    -0.15200
C1078       C  0.76092072  0.73084586  0.34825224    -0.30300
H1079       H  0.70563155  0.70355983  0.34389873     0.13900
H1080       H  0.77894630  0.76591754  0.34949064     0.14400
C1081       C  0.61465115  0.82254993  0.51034472    -0.15200
C1082       C  0.64881806  0.83907271  0.49976977    -0.30300
H1083       H  0.59616483  0.80805638  0.48715525     0.13900
H1084       H  0.66632011  0.85385857  0.52382724     0.14400
C1085       C  0.73832949  0.01861173  0.48121463    -0.15200
C1086       C  0.77124013  0.00698799  0.49742305    -0.30300
H1087       H  0.72117807  0.05077732  0.49288770     0.13900
H1088       H  0.78823474  0.97447646  0.48602530     0.14400
loop_ 
_geom_bond_atom_site_label_1 
_geom_bond_atom_site_label_2 
_geom_bond_distance 
_geom_bond_site_symmetry_2 
_ccdc_geom_bond_type 
O1          Cr19   2.075       .  S
O1            C9   1.286       .  A
O2          Cr19   1.966       .  S
O2            C3   1.255       .  A
C3            O4   1.268   1_565  A
C3          C525   1.488       .  S
O4          Cr20   2.040   1_545  S
O5          Cr20   1.986   1_545  S
O5            C6   1.262   1_545  A
C6            O7   1.247       .  A
C6          C541   1.442   1_565  S
O7          Cr21   1.943       .  S
O8          Cr21   1.953       .  S
O8            C9   1.258       .  A
C9          C538   1.499       .  S
O10         Cr19   2.016       .  S
O10          C18   1.260       .  A
O11         Cr19   2.059       .  S
O11          C12   1.282       .  A
C12          O13   1.254       .  A
C12         C529   1.485       .  S
O13         Cr20   1.935       .  S
O14         Cr20   2.025       .  S
O14          C15   1.277       .  A
C15          O16   1.265       .  A
C15         C521   1.478       .  S
O16         Cr21   1.981       .  S
O17         Cr21   1.960       .  S
O17          C18   1.249       .  A
C18         C533   1.475       .  S
Cr19         O22   1.769       .  S
Cr20         O22   1.778       .  S
Cr21         O22   1.774       .  S
O23         Cr41   2.060       .  S
O23          C31   1.275       .  A
O24         Cr41   1.981       .  S
O24          C25   1.256       .  A
C25          O26   1.264       .  A
C25         C509   1.462       .  S
O26         Cr42   1.979       .  S
O27         Cr42   1.984       .  S
O27          C28   1.256       .  A
C28          O29   1.253       .  A
C28         C505   1.440       .  S
O29         Cr43   1.953       .  S
O30         Cr43   1.991       .  S
O30          C31   1.260       .  A
C31         C501   1.515       .  S
O32         Cr41   2.018       .  S
O32          C40   1.267       .  A
O33         Cr41   2.041       .  S
O33          C34   1.281       .  A
C34          O35   1.261       .  A
C34         C517   1.497       .  S
O35         Cr42   1.977       .  S
O36         Cr42   1.981       .  S
O36          C37   1.262       .  A
C37          O38   1.259       .  A
C37         C513   1.461       .  S
O38         Cr43   1.971       .  S
O39         Cr43   1.983       .  S
O39          C40   1.257       .  A
C40         C534   1.479       .  S
Cr41         O44   1.762       .  S
Cr42         O44   1.776       .  S
Cr43         O44   1.768       .  S
O45         Cr63   2.006       .  S
O45          C53   1.265       .  A
O46         Cr63   2.027       .  S
O46          C47   1.274   1_545  A
C47          O48   1.259       .  A
C47         C486   1.472       .  S
O48         Cr64   1.964       .  S
O49         Cr64   1.984       .  S
O49          C50   1.256   1_565  A
C50          O51   1.243       .  A
C50         C497   1.436   1_544  S
O51         Cr65   1.950       .  S
O52         Cr65   2.023       .  S
O52          C53   1.266       .  A
C53         C494   1.507       .  S
O54         Cr63   2.060       .  S
O54          C62   1.278       .  A
O55         Cr63   2.011       .  S
O55          C56   1.272       .  A
C56          O57   1.260   1_545  A
C56         C530   1.483       .  S
O57         Cr64   1.996       .  S
O58         Cr64   1.976   1_545  S
O58          C59   1.266       .  A
C59          O60   1.269       .  A
C59         C481   1.472       .  S
O60         Cr65   2.017       .  S
O61         Cr65   1.954       .  S
O61          C62   1.251       .  A
C62         C489   1.490       .  S
Cr63         O66   1.763       .  S
Cr64         O66   1.780   1_565  S
Cr65         O66   1.770       .  S
O67         Cr85   2.071       .  S
O67          C75   1.291       .  A
O68         Cr85   1.976       .  S
O68          C69   1.260       .  A
C69          O70   1.251       .  A
C69         C473   1.454       .  S
O70         Cr86   1.955       .  S
O71         Cr86   1.976       .  S
O71          C72   1.246       .  A
C72          O73   1.238       .  A
C72         C470   1.437   1_554  S
O73         Cr87   1.943       .  S
O74         Cr87   1.980       .  S
O74          C75   1.269       .  A
C75         C465   1.513       .  S
O76         Cr85   2.033       .  S
O76          C84   1.259       .  A
O77         Cr85   2.025       .  S
O77          C78   1.276       .  A
C78          O79   1.259       .  A
C78         C518   1.490       .  S
O79         Cr86   1.973       .  S
O80         Cr86   1.996       .  S
O80          C81   1.273       .  A
C81          O82   1.272       .  A
C81         C477   1.445       .  S
O82         Cr87   1.970       .  S
O83         Cr87   1.965       .  S
O83          C84   1.244       .  A
C84         C490   1.485       .  S
Cr85         O88   1.764       .  S
Cr86         O88   1.776       .  S
Cr87         O88   1.786       .  S
O89        Cr107   1.984       .  S
O89          C97   1.270       .  A
O90        Cr107   1.932       .  S
O90          C91   1.239       .  A
C91          O92   1.250       .  A
C91         C457   1.444   1_554  S
O92        Cr108   1.994       .  S
O93        Cr108   1.978       .  S
O93          C94   1.255       .  A
C94          O95   1.253       .  A
C94         C482   1.476       .  S
O95        Cr109   1.977       .  S
O96        Cr109   2.068       .  S
O96          C97   1.291       .  A
C97         C461   1.515       .  S
O98        Cr107   1.965       .  S
O98         C106   1.245       .  A
O99        Cr651   1.980       .  S
O99         C100   1.281   1_655  A
C100        O101   1.280   1_455  A
C100        C485   1.463       .  S
O101       Cr652   2.016       .  S
O102       Cr108   1.956       .  S
O102        C103   1.260       .  A
C103        O104   1.279       .  A
C103        C449   1.486       .  S
O104       Cr109   2.033       .  S
O105       Cr109   2.009       .  S
O105        C106   1.253       .  A
C106        C453   1.481       .  S
Cr107       O643   1.977       .  S
Cr107       O110   1.787       .  S
Cr108       O645   2.015       .  S
Cr108       O110   1.784       .  S
Cr109       O110   1.773       .  S
O111       Cr129   2.013       .  S
O111        C119   1.263       .  A
O112       Cr129   1.943       .  S
O112        C113   1.249       .  A
C113        O114   1.255       .  A
C113        C986   1.428   1_455  S
O114       Cr130   1.982       .  S
O115       Cr130   1.954       .  S
O115        C116   1.252       .  A
C116        O117   1.270       .  A
C116        C478   1.456       .  S
O117       Cr131   2.015       .  S
O118       Cr131   2.018       .  S
O118        C119   1.267       .  A
C119        C437   1.507       .  S
O120       Cr673   1.959       .  S
O120        C672   1.253       .  A
O121       Cr673   2.004       .  S
O121        C122   1.268       .  A
C122        O123   1.257       .  A
C122        C474   1.460       .  S
O123       Cr674   1.961       .  S
O124       Cr130   1.982       .  S
O124        C125   1.261       .  A
C125        O126   1.273       .  A
C125        C445   1.478       .  S
O126       Cr131   2.007       .  S
O127       Cr131   2.055       .  S
O127        C128   1.277       .  A
C128        O664   1.254       .  A
C128        C998   1.484       .  S
Cr129       O664   1.956       .  S
Cr129       O665   1.998   1_455  S
Cr129       O132   1.756       .  S
Cr130       O667   1.970   1_455  S
Cr130       O132   1.774       .  S
Cr131       O132   1.759       .  S
O133       Cr151   1.998       .  S
O133        C141   1.263       .  A
O134       Cr151   1.928       .  S
O134        C135   1.248       .  A
C135        O136   1.257   1_545  A
C135        C430   1.452   1_545  S
O136       Cr152   1.984   1_565  S
O137       Cr152   2.028   1_565  S
O137        C138   1.268   1_565  A
C138        O139   1.255       .  A
C138        C522   1.468   1_545  S
O139       Cr153   1.955       .  S
O140       Cr153   2.047       .  S
O140        C141   1.278       .  A
C141        C434   1.511       .  S
O142       Cr151   1.974       .  S
O142        C150   1.255       .  A
O143       Cr695   2.000   1_455  S
O143        C144   1.269       .  A
C144        O145   1.275   1_455  A
C144        C526   1.494       .  S
O145       Cr696   2.029       .  S
O146       Cr152   1.965       .  S
O146        C147   1.257       .  A
C147        O148   1.268       .  A
C147        C450   1.477       .  S
O148       Cr153   2.020       .  S
O149       Cr153   2.004       .  S
O149        C150   1.258       .  A
C150        C426   1.471       .  S
Cr151       O687   2.001       .  S
Cr151       O154   1.782       .  S
Cr152       O689   2.026       .  S
Cr152       O154   1.789       .  S
Cr153       O154   1.771       .  S
O155       Cr173   1.999       .  S
O155        C163   1.263       .  A
O156       Cr173   1.953       .  S
O156        C157   1.255       .  A
C157        O158   1.258       .  A
C157        C961   1.444       .  S
O158       Cr174   1.986       .  S
O159       Cr174   1.969       .  S
O159        C160   1.259       .  A
C160        O161   1.262       .  A
C160        C514   1.457       .  S
O161       Cr175   1.989       .  S
O162       Cr175   2.017       .  S
O162        C163   1.268       .  A
C163        C421   1.494       .  S
O164       Cr717   1.954       .  S
O164        C716   1.252       .  A
O165       Cr717   1.975       .  S
O165        C166   1.256       .  A
C166        O167   1.266       .  A
C166        C510   1.458       .  S
O167       Cr718   1.986       .  S
O168       Cr174   1.985       .  S
O168        C169   1.262       .  A
C169        O170   1.273       .  A
C169        C446   1.476       .  S
O170       Cr175   2.006       .  S
O171       Cr175   2.022       .  S
O171        C172   1.267       .  A
C172        O708   1.253       .  A
C172        C969   1.473       .  S
Cr173       O708   1.966       .  S
Cr173       O709   1.966   1_455  S
Cr173       O176   1.760       .  S
Cr174       O711   1.978       .  S
Cr174       O176   1.772       .  S
Cr175       O176   1.766       .  S
O177       Cr195   1.992       .  S
O177        C185   1.272       .  A
O178       Cr195   1.914       .  S
O178        C179   1.231       .  A
C179        O180   1.253       .  A
C179        C542   1.445       .  S
O180       Cr196   2.007       .  S
O181       Cr196   2.004       .  S
O181        C182   1.264       .  A
C182        O183   1.253       .  A
C182        C402   1.484       .  S
O183       Cr197   1.969       .  S
O184       Cr197   2.064       .  S
O184        C185   1.292       .  A
C185        C433   1.512       .  S
O186       Cr195   1.959       .  S
O186        C194   1.242       .  A
O187       Cr195   1.993       .  S
O187        C188   1.281       .  A
C188        O189   1.282       .  A
C188        C405   1.479       .  S
O189       Cr196   2.032       .  S
O190       Cr196   1.972       .  S
O190        C191   1.260       .  A
C191        O192   1.275       .  A
C191        C410   1.484       .  S
O192       Cr197   2.018       .  S
O193       Cr197   2.012       .  S
O193        C194   1.252       .  A
C194        C413   1.475       .  S
Cr195       O198   1.783       .  S
Cr196       O198   1.776       .  S
Cr197       O198   1.768       .  S
O199       Cr217   2.004       .  S
O199        C207   1.264       .  A
O200       Cr217   1.953       .  S
O200        C201   1.254       .  A
C201        O202   1.256       .  A
C201        C506   1.435       .  S
O202       Cr218   1.977       .  S
O203       Cr218   1.968       .  S
O203        C204   1.256       .  A
C204        O205   1.266       .  A
C204        C393   1.460       .  S
O205       Cr219   1.999       .  S
O206       Cr219   2.014       .  S
O206        C207   1.268       .  A
C207        C422   1.495       .  S
O208       Cr217   1.965       .  S
O208        C216   1.252       .  A
O209       Cr217   1.976       .  S
O209        C210   1.261       .  A
C210        O211   1.261       .  A
C210        C389   1.459       .  S
O211       Cr218   1.976       .  S
O212       Cr218   1.994       .  S
O212        C213   1.261       .  A
C213        O214   1.275       .  A
C213        C397   1.480       .  S
O214       Cr219   2.010       .  S
O215       Cr219   2.037       .  S
O215        C216   1.270       .  A
C216        C414   1.479       .  S
Cr217       O220   1.765       .  S
Cr218       O220   1.772       .  S
Cr219       O220   1.764       .  S
O221       Cr239   2.024       .  S
O221        C229   1.266       .  A
O222       Cr239   1.951       .  S
O222        C223   1.244       .  A
C223        O224   1.257       .  A
C223        C498   1.438   1_556  S
O224       Cr240   1.982       .  S
O225       Cr240   1.969   1_545  S
O225        C226   1.260   1_545  A
C226        O227   1.268       .  A
C226        C377   1.466   1_565  S
O227       Cr241   2.008       .  S
O228       Cr241   2.014       .  S
O228        C229   1.267       .  A
C229        C462   1.511       .  S
O230       Cr239   1.951       .  S
O230        C238   1.252       .  A
O231       Cr239   2.020       .  S
O231        C232   1.268       .  A
C232        O233   1.264       .  A
C232        C381   1.473       .  S
O233       Cr240   1.972       .  S
O234       Cr240   1.987       .  S
O234        C235   1.261       .  A
C235        O236   1.272       .  A
C235        C409   1.487       .  S
O236       Cr241   2.014       .  S
O237       Cr241   2.041       .  S
O237        C238   1.273       .  A
C238        C385   1.478       .  S
Cr239       O242   1.773       .  S
Cr240       O242   1.776       .  S
Cr241       O242   1.766       .  S
O243       Cr261   1.957       .  S
O243        C251   1.262       .  A
O244       Cr261   1.951       .  S
O244        C245   1.244       .  A
C245        O246   1.250       .  A
C245        C469   1.441       .  S
O246       Cr262   1.978       .  S
O247       Cr262   1.978       .  S
O247        C248   1.256       .  A
C248        O249   1.257       .  A
C248        C373   1.461       .  S
O249       Cr263   1.966       .  S
O250       Cr263   2.081       .  S
O250        C251   1.290       .  A
C251        C438   1.502       .  S
O252       Cr261   1.960       .  S
O252        C260   1.246       .  A
O253       Cr261   1.963       .  S
O253        C254   1.265       .  A
C254        O255   1.272       .  A
C254        C369   1.450       .  S
O255       Cr262   2.008       .  S
O256       Cr262   1.938       .  S
O256        C257   1.255       .  A
C257        O258   1.279       .  A
C257        C398   1.484       .  S
O258       Cr263   2.045       .  S
O259       Cr263   2.016       .  S
O259        C260   1.257       .  A
C260        C386   1.474       .  S
Cr261       O264   1.779       .  S
Cr262       O264   1.777       .  S
Cr263       O264   1.772       .  S
O265       Cr283   2.016       .  S
O265        C273   1.269       .  A
O266       Cr283   2.022       .  S
O266        C267   1.267       .  A
C267        O268   1.261   1_565  A
C267        C406   1.489   1_565  S
O268       Cr284   1.988   1_545  S
O269       Cr284   1.981   1_545  S
O269        C270   1.261   1_545  A
C270        O271   1.249       .  A
C270        C429   1.425       .  S
O271       Cr285   1.937       .  S
O272       Cr285   2.010       .  S
O272        C273   1.264       .  A
C273        C537   1.503       .  S
O274       Cr283   2.055       .  S
O274        C282   1.274       .  A
O275       Cr283   2.009       .  S
O275        C276   1.275       .  A
C276        O277   1.265       .  A
C276        C361   1.484       .  S
O277       Cr284   1.995       .  S
O278       Cr828   2.008       .  S
O278        C279   1.268       .  A
C279        O280   1.257       .  A
C279        C401   1.479       .  S
O280       Cr829   1.983       .  S
O281       Cr829   1.954       .  S
O281        C826   1.250       .  A
C282        O825   1.248       .  A
C282        C910   1.482       .  S
Cr283       O286   1.771       .  S
Cr284       O822   1.994   1_455  S
Cr284       O286   1.769       .  S
Cr285       O824   1.987   1_455  S
Cr285       O825   1.948       .  S
Cr285       O286   1.773       .  S
O287       Cr305   2.049       .  S
O287        C295   1.272       .  A
O288       Cr305   1.991       .  S
O288        C289   1.264       .  A
C289        O290   1.258       .  A
C289        C390   1.456       .  S
O290       Cr306   1.965       .  S
O291       Cr306   1.983       .  S
O291        C292   1.260       .  A
C292        O293   1.248       .  A
C292        C418   1.433       .  S
O293       Cr307   1.950       .  S
O294       Cr307   1.997       .  S
O294        C295   1.261       .  A
C295        C502   1.516       .  S
O296       Cr305   2.039       .  S
O296        C304   1.273       .  A
O297       Cr305   2.031       .  S
O297        C298   1.280       .  A
C298        O299   1.259       .  A
C298        C357   1.488       .  S
O299       Cr306   1.979       .  S
O300       Cr850   1.963       .  S
O300        C301   1.260   1_655  A
C301        O302   1.269       .  A
C301        C394   1.459       .  S
O302       Cr851   2.005   1_455  S
O303       Cr307   1.956       .  S
O303        C304   1.253       .  A
C304        C365   1.477       .  S
Cr305       O308   1.757       .  S
Cr306       O844   1.967       .  S
Cr306       O308   1.766       .  S
Cr307       O846   1.986       .  S
Cr307       O308   1.761       .  S
O309       Cr327   2.065       .  S
O309        C317   1.289       .  A
O310       Cr327   1.970       .  S
O310        C311   1.256       .  A
C311        O312   1.260       .  A
C311        C382   1.473       .  S
O312       Cr328   1.990       .  S
O313       Cr328   1.990       .  S
O313        C314   1.254       .  A
C314        O315   1.240   1_455  A
C314       C1002   1.448   1_545  S
O315       Cr329   1.938   1_655  S
O316       Cr329   1.978       .  S
O316        C317   1.268       .  A
C317        C493   1.512       .  S
O318       Cr327   2.014       .  S
O318        C326   1.254       .  A
O319       Cr327   2.024       .  S
O319        C320   1.274       .  A
C320        O321   1.258       .  A
C320        C362   1.484       .  S
O321       Cr328   1.961       .  S
O322       Cr872   2.011   1_545  S
O322        C323   1.275       .  A
C323        O324   1.269       .  A
C323        C378   1.454       .  S
O324       Cr873   1.966       .  S
O325       Cr873   1.965       .  S
O325        C870   1.244       .  A
C326        O869   1.246       .  A
C326        C897   1.479       .  S
Cr327       O330   1.773       .  S
Cr328       O866   2.006   1_455  S
Cr328       O330   1.781       .  S
Cr329       O868   1.978   1_455  S
Cr329       O869   1.969       .  S
Cr329       O330   1.787       .  S
O331       Cr349   2.010       .  S
O331        C339   1.267       .  A
O332       Cr349   2.008       .  S
O332        C333   1.272       .  A
C333        O334   1.262       .  A
C333        C370   1.463       .  S
O334       Cr350   1.967       .  S
O335       Cr350   1.985       .  S
O335        C336   1.252       .  A
C336        O337   1.247       .  A
C336        C441   1.439       .  S
O337       Cr351   1.947       .  S
O338       Cr351   2.024       .  S
O338        C339   1.266       .  A
C339        C466   1.509       .  S
O340       Cr349   2.050       .  S
O340        C348   1.276       .  A
O341       Cr349   2.028       .  S
O341        C342   1.276       .  A
C342        O343   1.254       .  A
C342        C358   1.489       .  S
O343       Cr350   1.973       .  S
O344       Cr894   1.966       .  S
O344        C345   1.259   1_655  A
C345        O346   1.267   1_455  A
C345        C374   1.464       .  S
O346       Cr895   2.008       .  S
O347       Cr351   1.959       .  S
O347        C348   1.252       .  A
C348        C354   1.490       .  S
Cr349       O352   1.763       .  S
Cr350       O888   1.969       .  S
Cr350       O352   1.780       .  S
Cr351       O890   2.011       .  S
Cr351       O352   1.774       .  S
C353        C870   1.486       .  S
C353        C354   1.359       .  D
C353        H355   1.086       .  S
C354        H900   1.086       .  S
H356        C898   1.087       .  S
C357        C358   1.370       .  D
C357        H359   1.086       .  S
C358        H360   1.086       .  S
C361        C362   1.360   1_565  D
C361        H363   1.086       .  S
C362        H364   1.086       .  S
C365        C366   1.354       .  D
C365        H367   1.086       .  S
C366        C826   1.477       .  S
C366        H912   1.086       .  S
H368        C910   1.086       .  S
C369        C370   1.343       .  D
C369        H371   1.087       .  S
C370        H372   1.088       .  S
C373        C374   1.340       .  D
C373        H375   1.086       .  S
C374        H376   1.088       .  S
C377        C378   1.344       .  D
C377        H379   1.088       .  S
C378        H380   1.087   1_545  S
C381        C382   1.343   1_565  D
C381        H383   1.086       .  S
C382        H384   1.088       .  S
C385        C386   1.355       .  D
C385        H387   1.087       .  S
C386        H388   1.086       .  S
C389        C390   1.345       .  D
C389        H391   1.086       .  S
C390        H392   1.087       .  S
C393        C394   1.341       .  D
C393        H395   1.087       .  S
C394        H396   1.087       .  S
C397        C398   1.363       .  D
C397        H399   1.086       .  S
C398        H400   1.086       .  S
C401        C402   1.338   1_565  D
C401        H403   1.087       .  S
C402        H404   1.087       .  S
C405        C406   1.349       .  D
C405        H407   1.086   1_545  S
C406        H408   1.087       .  S
C409        C410   1.362   1_565  D
C409        H411   1.086       .  S
C410        H412   1.086       .  S
C413        C414   1.351       .  D
C413        H415   1.086       .  S
C414        H416   1.087       .  S
C417        C701   1.437       .  S
C417        C418   1.339       .  D
C417        H419   1.088       .  S
C418        H420   1.088       .  S
C421        C422   1.345       .  D
C421        H423   1.087       .  S
C422        H424   1.086       .  S
C425        C716   1.477       .  S
C425        C426   1.352       .  D
C425        H427   1.087       .  S
C426        H428   1.086       .  S
C429        C974   1.345   1_455  D
C429        H975   1.087   1_565  S
C430        C973   1.351       .  D
C430        H432   1.087       .  S
H431        C973   1.087   1_545  S
C433        C434   1.364       .  D
C433        H435   1.086       .  S
C434        H436   1.086       .  S
C437        C438   1.349   1_554  D
C437        H439   1.086   1_554  S
C438        H440   1.087   1_556  S
C441        C442   1.342   1_556  D
C441        H443   1.087       .  S
C442        C657   1.443       .  S
C442        H444   1.087   1_554  S
C445        C446   1.360       .  D
C445        H447   1.086       .  S
C446        H448   1.086       .  S
C449        C450   1.357   1_565  D
C449        H451   1.086       .  S
C450        H452   1.086       .  S
C453        C454   1.354       .  D
C453        H455   1.086       .  S
C454        C672   1.485       .  S
C454       H1000   1.087       .  S
H456        C998   1.087       .  S
C457        C458   1.348       .  D
C457        H459   1.087   1_565  S
C458        C858   1.438       .  S
C458       H1004   1.088       .  S
H460       C1002   1.087   1_554  S
C461        C462   1.368   1_554  D
C461        H463   1.086       .  S
C462        H464   1.086       .  S
C465        C466   1.365   1_554  D
C465        H467   1.086       .  S
C466        H468   1.086       .  S
C469        C470   1.344       .  D
C469        H471   1.087       .  S
C470        H472   1.087       .  S
C473        C474   1.337       .  D
C473        H475   1.087       .  S
C474        H476   1.088       .  S
C477        C478   1.336       .  D
C477        H479   1.087       .  S
C478        H480   1.088       .  S
C481        C482   1.343   1_545  D
C481        H483   1.086       .  S
C482        H484   1.087       .  S
C485        C486   1.340       .  D
C485        H487   1.087       .  S
C486        H488   1.088       .  S
C489        C490   1.360       .  D
C489        H491   1.087       .  S
C490        H492   1.086       .  S
C493        C494   1.364   1_556  D
C493        H495   1.086       .  S
C494        H496   1.086       .  S
C497        C498   1.341   1_556  D
C497        H499   1.086   1_565  S
C498        H500   1.086       .  S
C501        C502   1.351       .  D
C501        H503   1.087       .  S
C502        H504   1.086       .  S
C505        C506   1.340       .  D
C505        H507   1.087       .  S
C506        H508   1.087       .  S
C509        C510   1.331       .  D
C509        H511   1.087       .  S
C510        H512   1.087       .  S
C513        C514   1.346       .  D
C513        H515   1.087       .  S
C514        H516   1.087       .  S
C517        C518   1.368       .  D
C517        H519   1.086       .  S
C518        H520   1.086       .  S
C521        C522   1.348       .  D
C521        H523   1.086       .  S
C522        H524   1.088   1_565  S
C525        C526   1.352   1_565  D
C525        H527   1.088       .  S
C526        H528   1.085       .  S
C529        C530   1.364   1_565  D
C529        H531   1.086       .  S
C530        H532   1.086       .  S
C533        C534   1.350       .  D
C533        H535   1.086       .  S
C534        H536   1.088       .  S
C537        C538   1.346       .  D
C537        H539   1.086       .  S
C538        H540   1.088       .  S
C541        C542   1.357       .  D
C541        H543   1.086       .  S
C542        H544   1.086   1_545  S
O545       Cr563   2.085       .  S
O545        C553   1.288       .  A
O546       Cr563   1.968       .  S
O546        C547   1.255       .  A
C547        O548   1.265       .  A
C547       C1069   1.487       .  S
O548       Cr564   2.031       .  S
O549       Cr564   1.983       .  S
O549        C550   1.260       .  A
C550        O551   1.248       .  A
C550       C1085   1.442   1_565  S
O551       Cr565   1.945       .  S
O552       Cr565   1.954       .  S
O552        C553   1.258       .  A
C553       C1082   1.507       .  S
O554       Cr563   2.016       .  S
O554        C562   1.260       .  A
O555       Cr563   2.065       .  S
O555        C556   1.284       .  A
C556        O557   1.256       .  A
C556       C1073   1.494       .  S
O557       Cr564   1.946       .  S
O558       Cr564   2.021       .  S
O558        C559   1.276       .  A
C559        O560   1.264       .  A
C559       C1065   1.478       .  S
O560       Cr565   1.980       .  S
O561       Cr565   1.958       .  S
O561        C562   1.248       .  A
C562       C1077   1.476       .  S
Cr563       O566   1.770       .  S
Cr564       O566   1.782       .  S
Cr565       O566   1.781       .  S
O567       Cr585   2.005       .  S
O567        C575   1.266       .  A
O568       Cr585   1.995       .  S
O568        C569   1.266       .  A
C569        O570   1.260       .  A
C569       C1053   1.449       .  S
O570       Cr586   1.958       .  S
O571       Cr586   1.977       .  S
O571        C572   1.250       .  A
C572        O573   1.248       .  A
C572       C1049   1.437       .  S
O573       Cr587   1.948       .  S
O574       Cr587   2.025       .  S
O574        C575   1.270       .  A
C575       C1045   1.510       .  S
O576       Cr585   2.025       .  S
O576        C584   1.268       .  A
O577       Cr585   2.014       .  S
O577        C578   1.273       .  A
C578        O579   1.255       .  A
C578       C1061   1.475       .  S
O579       Cr586   1.978       .  S
O580       Cr586   1.970       .  S
O580        C581   1.263       .  A
C581        O582   1.271       .  A
C581       C1057   1.467       .  S
O582       Cr587   2.014       .  S
O583       Cr587   1.969       .  S
O583        C584   1.254       .  A
C584       C1078   1.480       .  S
Cr585       O588   1.765       .  S
Cr586       O588   1.776       .  S
Cr587       O588   1.766       .  S
O589       Cr607   2.047       .  S
O589        C597   1.270       .  A
O590       Cr607   2.011       .  S
O590        C591   1.268   1_545  A
C591        O592   1.259       .  A
C591       C1030   1.473       .  S
O592       Cr608   1.971       .  S
O593       Cr608   1.982       .  S
O593        C594   1.256   1_565  A
C594        O595   1.250       .  A
C594       C1041   1.431   1_544  S
O595       Cr609   1.947       .  S
O596       Cr609   2.001       .  S
O596        C597   1.258       .  A
C597       C1038   1.516       .  S
O598       Cr607   2.062       .  S
O598        C606   1.280       .  A
O599       Cr607   2.026       .  S
O599        C600   1.279       .  A
C600        O601   1.262   1_545  A
C600       C1074   1.493       .  S
O601       Cr608   1.995       .  S
O602       Cr608   1.992   1_545  S
O602        C603   1.268       .  A
C603        O604   1.258       .  A
C603       C1025   1.466       .  S
O604       Cr609   1.984       .  S
O605       Cr609   1.957       .  S
O605        C606   1.253       .  A
C606       C1033   1.488       .  S
Cr607       O610   1.759       .  S
Cr608       O610   1.778   1_565  S
Cr609       O610   1.768       .  S
O611       Cr629   2.083       .  S
O611        C619   1.292       .  A
O612       Cr629   1.970       .  S
O612        C613   1.255       .  A
C613        O614   1.250       .  A
C613       C1017   1.451       .  S
O614       Cr630   1.961       .  S
O615       Cr630   1.970       .  S
O615        C616   1.249       .  A
C616        O617   1.244       .  A
C616       C1014   1.434       .  S
O617       Cr631   1.951       .  S
O618       Cr631   1.961       .  S
O618        C619   1.263       .  A
C619       C1009   1.508   1_554  S
O620       Cr629   2.024       .  S
O620        C628   1.259       .  A
O621       Cr629   2.048       .  S
O621        C622   1.281       .  A
C622        O623   1.254       .  A
C622       C1062   1.479       .  S
O623       Cr630   1.926       .  S
O624       Cr630   1.993       .  S
O624        C625   1.268       .  A
C625        O626   1.265       .  A
C625       C1021   1.441       .  S
O626       Cr631   1.965       .  S
O627       Cr631   1.960       .  S
O627        C628   1.245       .  A
C628       C1034   1.484       .  S
Cr629       O632   1.771       .  S
Cr630       O632   1.779       .  S
Cr631       O632   1.781       .  S
O633       Cr651   1.984       .  S
O633        C641   1.275       .  A
O634       Cr651   1.928       .  S
O634        C635   1.234       .  A
C635        O636   1.250       .  A
C635       C1001   1.449   1_565  S
O636       Cr652   1.996       .  S
O637       Cr652   1.990       .  S
O637        C638   1.261       .  A
C638        O639   1.249       .  A
C638       C1026   1.469       .  S
O639       Cr653   1.959       .  S
O640       Cr653   2.082       .  S
O640        C641   1.299       .  A
C641       C1005   1.523       .  S
O642       Cr651   1.965       .  S
O642        C650   1.242       .  A
O643        C644   1.272       .  A
C644        O645   1.274       .  A
C644       C1029   1.464       .  S
O646       Cr652   1.968       .  S
O646        C647   1.260       .  A
C647        O648   1.277       .  A
C647        C993   1.489       .  S
O648       Cr653   2.028       .  S
O649       Cr653   2.009       .  S
O649        C650   1.249       .  A
C650        C997   1.480       .  S
Cr651       O654   1.777       .  S
Cr652       O654   1.769       .  S
Cr653       O654   1.763       .  S
O655       Cr673   2.017       .  S
O655        C663   1.266       .  A
O656       Cr673   1.944       .  S
O656        C657   1.249       .  A
C657        O658   1.257       .  A
O658       Cr674   1.997       .  S
O659       Cr674   1.953       .  S
O659        C660   1.254       .  A
C660        O661   1.268       .  A
C660       C1022   1.452       .  S
O661       Cr675   2.004       .  S
O662       Cr675   2.032       .  S
O662        C663   1.270       .  A
C663        C981   1.515       .  S
O665        C666   1.266       .  A
C666        O667   1.259       .  A
C666       C1018   1.463       .  S
O668       Cr674   1.993       .  S
O668        C669   1.262       .  A
C669        O670   1.278       .  A
C669        C989   1.491       .  S
O670       Cr675   2.024       .  S
O671       Cr675   2.051       .  S
O671        C672   1.276       .  A
Cr673       O676   1.759       .  S
Cr674       O676   1.775       .  S
Cr675       O676   1.760       .  S
O677       Cr695   1.994       .  S
O677        C685   1.262       .  A
O678       Cr695   1.937       .  S
O678        C679   1.252       .  A
C679        O680   1.256   1_545  A
C679        C974   1.448   1_545  S
O680       Cr696   1.978   1_565  S
O681       Cr696   2.026   1_565  S
O681        C682   1.267   1_565  A
C682        O683   1.254       .  A
C682       C1066   1.469       .  S
O683       Cr697   1.956       .  S
O684       Cr697   2.050       .  S
O684        C685   1.279       .  A
C685        C978   1.508       .  S
O686       Cr695   1.974       .  S
O686        C694   1.256       .  A
O687        C688   1.271       .  A
C688        O689   1.276       .  A
C688       C1070   1.494       .  S
O690       Cr696   1.961       .  S
O690        C691   1.257       .  A
C691        O692   1.273       .  A
C691        C994   1.482       .  S
O692       Cr697   2.034       .  S
O693       Cr697   1.998       .  S
O693        C694   1.259       .  A
C694        C970   1.467       .  S
Cr695       O698   1.779       .  S
Cr696       O698   1.787       .  S
Cr697       O698   1.769       .  S
O699       Cr717   1.988       .  S
O699        C707   1.257       .  A
O700       Cr717   1.955       .  S
O700        C701   1.250       .  A
C701        O702   1.261       .  A
O702       Cr718   1.975       .  S
O703       Cr718   1.979       .  S
O703        C704   1.259       .  A
C704        O705   1.263       .  A
C704       C1058   1.469       .  S
O705       Cr719   1.996       .  S
O706       Cr719   2.042       .  S
O706        C707   1.268       .  A
C707        C965   1.507       .  S
O709        C710   1.260       .  A
C710        O711   1.260   1_655  A
C710       C1054   1.458       .  S
O712       Cr718   1.993       .  S
O712        C713   1.264       .  A
C713        O714   1.278       .  A
C713        C990   1.491       .  S
O714       Cr719   2.020       .  S
O715       Cr719   2.048       .  S
O715        C716   1.275       .  A
Cr717       O720   1.768       .  S
Cr718       O720   1.767       .  S
Cr719       O720   1.766       .  S
O721       Cr739   1.975       .  S
O721        C729   1.261       .  A
O722       Cr739   1.927       .  S
O722        C723   1.244       .  A
C723        O724   1.257       .  A
C723       C1086   1.446       .  S
O724       Cr740   1.989       .  S
O725       Cr740   2.021       .  S
O725        C726   1.268       .  A
C726        O727   1.251       .  A
C726        C946   1.477       .  S
O727       Cr741   1.953       .  S
O728       Cr741   2.059       .  S
O728        C729   1.285       .  A
C729        C977   1.510       .  S
O730       Cr739   1.969       .  S
O730        C738   1.250       .  A
O731       Cr739   1.989       .  S
O731        C732   1.271       .  A
C732        O733   1.279       .  A
C732        C949   1.490       .  S
O733       Cr740   2.032       .  S
O734       Cr740   1.968       .  S
O734        C735   1.259       .  A
C735        O736   1.274       .  A
C735        C954   1.482       .  S
O736       Cr741   2.025       .  S
O737       Cr741   2.007       .  S
O737        C738   1.255       .  A
C738        C957   1.472       .  S
Cr739       O742   1.785       .  S
Cr740       O742   1.780       .  S
Cr741       O742   1.771       .  S
O743       Cr761   1.993       .  S
O743        C751   1.259       .  A
O744       Cr761   1.947       .  S
O744        C745   1.253       .  A
C745        O746   1.257       .  A
C745       C1050   1.439       .  S
O746       Cr762   1.988       .  S
O747       Cr762   1.960       .  S
O747        C748   1.256       .  A
C748        O749   1.265       .  A
C748        C937   1.451       .  S
O749       Cr763   1.988       .  S
O750       Cr763   2.042       .  S
O750        C751   1.270       .  A
C751        C966   1.506       .  S
O752       Cr761   1.956       .  S
O752        C760   1.252       .  A
O753       Cr761   1.962       .  S
O753        C754   1.259       .  A
C754        O755   1.261       .  A
C754        C933   1.456       .  S
O755       Cr762   1.980       .  S
O756       Cr762   1.994       .  S
O756        C757   1.260       .  A
C757        O758   1.280       .  A
C757        C941   1.492       .  S
O758       Cr763   2.029       .  S
O759       Cr763   2.044       .  S
O759        C760   1.273       .  A
C760        C958   1.479       .  S
Cr761       O764   1.759       .  S
Cr762       O764   1.775       .  S
Cr763       O764   1.760       .  S
O765       Cr783   2.042       .  S
O765        C773   1.270       .  A
O766       Cr783   1.948       .  S
O766        C767   1.247   1_565  A
C767        O768   1.247       .  A
C767       C1042   1.431       .  S
O768       Cr784   1.971       .  S
O769       Cr784   1.964       .  S
O769        C770   1.259       .  A
C770        O771   1.275   1_545  A
C770        C921   1.471       .  S
O771       Cr785   2.027       .  S
O772       Cr785   2.012       .  S
O772        C773   1.269       .  A
C773       C1006   1.518       .  S
O774       Cr783   1.972       .  S
O774        C782   1.255       .  A
O775       Cr783   2.027       .  S
O775        C776   1.273       .  A
C776        O777   1.265       .  A
C776        C925   1.476       .  S
O777       Cr784   1.973   1_565  S
O778       Cr784   1.975       .  S
O778        C779   1.255   1_545  A
C779        O780   1.272       .  A
C779        C953   1.490       .  S
O780       Cr785   2.028       .  S
O781       Cr785   2.045       .  S
O781        C782   1.275       .  A
C782        C929   1.493       .  S
Cr783       O786   1.773       .  S
Cr784       O786   1.786   1_545  S
Cr785       O786   1.764       .  S
O787       Cr805   1.969       .  S
O787        C795   1.263       .  A
O788       Cr805   1.948       .  S
O788        C789   1.244       .  A
C789        O790   1.251       .  A
C789       C1013   1.437       .  S
O790       Cr806   1.978       .  S
O791       Cr806   1.975       .  S
O791        C792   1.253       .  A
C792        O793   1.251       .  A
C792        C917   1.454       .  S
O793       Cr807   1.969       .  S
O794       Cr807   2.077       .  S
O794        C795   1.289       .  A
C795        C982   1.511   1_556  S
O796       Cr805   1.967       .  S
O796        C804   1.248       .  A
O797       Cr805   1.967       .  S
O797        C798   1.266       .  A
C798        O799   1.269       .  A
C798        C913   1.447       .  S
O799       Cr806   1.999       .  S
O800       Cr806   1.928       .  S
O800        C801   1.253       .  A
C801        O802   1.288       .  A
C801        C942   1.495       .  S
O802       Cr807   2.076       .  S
O803       Cr807   2.032       .  S
O803        C804   1.265       .  A
C804        C930   1.492       .  S
Cr805       O808   1.778       .  S
Cr806       O808   1.785       .  S
Cr807       O808   1.769       .  S
O809       Cr827   2.026       .  S
O809        C817   1.268       .  A
O810       Cr827   1.990       .  S
O810        C811   1.259       .  A
C811        O812   1.265       .  A
C811        C950   1.477   1_565  S
O812       Cr828   2.005       .  S
O813       Cr828   1.991       .  S
O813        C814   1.264       .  A
C814        O815   1.248       .  A
C814        C973   1.430       .  S
O815       Cr829   1.934       .  S
O816       Cr829   2.007       .  S
O816        C817   1.262       .  A
C817       C1081   1.511       .  S
O818       Cr827   2.040       .  S
O818        C826   1.271       .  A
O819       Cr827   2.010       .  S
O819        C820   1.277       .  A
C820        O821   1.266       .  A
C820        C905   1.487       .  S
O821       Cr828   2.003       .  S
O822        C823   1.266       .  A
C823        O824   1.258       .  A
C823        C945   1.473       .  S
Cr827       O830   1.770       .  S
Cr828       O830   1.779       .  S
Cr829       O830   1.777       .  S
O831       Cr849   2.007       .  S
O831        C839   1.266       .  A
O832       Cr849   1.990       .  S
O832        C833   1.264       .  A
C833        O834   1.260       .  A
C833        C934   1.448       .  S
O834       Cr850   1.959       .  S
O835       Cr850   1.976       .  S
O835        C836   1.251       .  A
C836        O837   1.251       .  A
C836        C962   1.442       .  S
O837       Cr851   1.956       .  S
O838       Cr851   2.024       .  S
O838        C839   1.270       .  A
C839       C1046   1.510       .  S
O840       Cr849   2.020       .  S
O840        C848   1.267       .  A
O841       Cr849   2.017       .  S
O841        C842   1.273       .  A
C842        O843   1.255       .  A
C842        C901   1.479       .  S
O843       Cr850   1.970       .  S
O844        C845   1.257       .  A
C845        O846   1.263       .  A
C845        C938   1.453       .  S
O847       Cr851   1.970       .  S
O847        C848   1.254       .  A
C848        C909   1.480       .  S
Cr849       O852   1.769       .  S
Cr850       O852   1.773       .  S
Cr851       O852   1.772       .  S
O853       Cr871   2.095       .  S
O853        C861   1.296       .  A
O854       Cr871   1.980       .  S
O854        C855   1.258       .  A
C855        O856   1.256   1_545  A
C855        C926   1.473   1_545  S
O856       Cr872   1.983       .  S
O857       Cr872   1.974       .  S
O857        C858   1.249       .  A
C858        O859   1.239   1_565  A
O859       Cr873   1.950       .  S
O860       Cr873   1.966       .  S
O860        C861   1.267       .  A
C861       C1037   1.514   1_556  S
O862       Cr871   2.024       .  S
O862        C870   1.257       .  A
O863       Cr871   2.047       .  S
O863        C864   1.280       .  A
C864        O865   1.256       .  A
C864        C906   1.493       .  S
O865       Cr872   1.947   1_545  S
O866        C867   1.273       .  A
C867        O868   1.274       .  A
C867        C922   1.460       .  S
Cr871       O874   1.774       .  S
Cr872       O874   1.779   1_565  S
Cr873       O874   1.786       .  S
O875       Cr893   2.031       .  S
O875        C883   1.271       .  A
O876       Cr893   2.007       .  S
O876        C877   1.267       .  A
C877        O878   1.255       .  A
C877        C914   1.458       .  S
O878       Cr894   1.960       .  S
O879       Cr894   1.980       .  S
O879        C880   1.254       .  A
C880        O881   1.247       .  A
C880        C985   1.428       .  S
O881       Cr895   1.941       .  S
O882       Cr895   2.013       .  S
O882        C883   1.264       .  A
C883       C1010   1.512       .  S
O884       Cr893   2.049       .  S
O884        C892   1.275       .  A
O885       Cr893   2.016       .  S
O885        C886   1.277       .  A
C886        O887   1.259       .  A
C886        C902   1.477       .  S
O887       Cr894   1.976       .  S
O888        C889   1.261       .  A
C889        O890   1.269       .  A
C889        C918   1.456       .  S
O891       Cr895   1.960       .  S
O891        C892   1.253       .  A
C892        C898   1.483       .  S
Cr893       O896   1.758       .  S
Cr894       O896   1.774       .  S
Cr895       O896   1.757       .  S
C897        C898   1.354   1_455  D
C897        H899   1.086       .  S
C901        C902   1.365       .  D
C901        H903   1.086       .  S
C902        H904   1.086       .  S
C905        C906   1.366   1_565  D
C905        H907   1.086       .  S
C906        H908   1.086       .  S
C909        C910   1.356   1_655  D
C909        H911   1.087       .  S
C913        C914   1.340       .  D
C913        H915   1.087       .  S
C914        H916   1.088       .  S
C917        C918   1.338       .  D
C917        H919   1.088       .  S
C918        H920   1.087       .  S
C921        C922   1.340       .  D
C921        H923   1.088       .  S
C922        H924   1.087       .  S
C925        C926   1.345       .  D
C925        H927   1.088   1_565  S
C926        H928   1.086       .  S
C929        C930   1.361       .  D
C929        H931   1.087       .  S
C930        H932   1.086       .  S
C933        C934   1.345       .  D
C933        H935   1.087       .  S
C934        H936   1.087       .  S
C937        C938   1.341       .  D
C937        H939   1.087       .  S
C938        H940   1.087       .  S
C941        C942   1.373       .  D
C941        H943   1.087       .  S
C942        H944   1.086       .  S
C945        C946   1.337   1_565  D
C945        H947   1.086       .  S
C946        H948   1.088       .  S
C949        C950   1.349       .  D
C949        H951   1.086       .  S
C950        H952   1.086   1_545  S
C953        C954   1.363   1_565  D
C953        H955   1.086       .  S
C954        H956   1.086       .  S
C957        C958   1.352       .  D
C957        H959   1.086       .  S
C958        H960   1.087       .  S
C961        C962   1.340   1_455  D
C961        H963   1.087       .  S
C962        H964   1.087       .  S
C965        C966   1.347       .  D
C965        H967   1.086       .  S
C966        H968   1.086       .  S
C969        C970   1.347   1_455  D
C969        H971   1.088       .  S
C970        H972   1.087       .  S
C974        H976   1.088       .  S
C977        C978   1.366       .  D
C977        H979   1.086       .  S
C978        H980   1.086       .  S
C981        C982   1.353       .  D
C981        H983   1.086   1_554  S
C982        H984   1.087       .  S
C985        C986   1.339   1_556  D
C985        H987   1.087   1_556  S
C986        H988   1.087   1_554  S
C989        C990   1.367       .  D
C989        H991   1.085       .  S
C990        H992   1.086       .  S
C993        C994   1.361   1_565  D
C993        H995   1.086       .  S
C994        H996   1.086       .  S
C997        C998   1.354   1_655  D
C997        H999   1.087       .  S
C1001      C1002   1.354   1_644  D
C1001      H1003   1.087   1_554  S
C1005      C1006   1.370   1_554  D
C1005      H1007   1.086       .  S
C1006      H1008   1.086       .  S
C1009      C1010   1.350       .  D
C1009      H1011   1.087       .  S
C1010      H1012   1.086   1_556  S
C1013      C1014   1.345   1_556  D
C1013      H1015   1.087       .  S
C1014      H1016   1.087   1_554  S
C1017      C1018   1.340       .  D
C1017      H1019   1.086       .  S
C1018      H1020   1.088       .  S
C1021      C1022   1.338       .  D
C1021      H1023   1.087       .  S
C1022      H1024   1.088       .  S
C1025      C1026   1.331   1_545  D
C1025      H1027   1.087       .  S
C1026      H1028   1.088       .  S
C1029      C1030   1.341       .  D
C1029      H1031   1.087   1_565  S
C1030      H1032   1.088       .  S
C1033      C1034   1.359       .  D
C1033      H1035   1.086       .  S
C1034      H1036   1.086       .  S
C1037      C1038   1.351       .  D
C1037      H1039   1.087       .  S
C1038      H1040   1.086   1_554  S
C1041      C1042   1.341   1_565  D
C1041      H1043   1.087       .  S
C1042      H1044   1.087       .  S
C1045      C1046   1.360       .  D
C1045      H1047   1.086       .  S
C1046      H1048   1.087       .  S
C1049      C1050   1.339       .  D
C1049      H1051   1.087       .  S
C1050      H1052   1.087       .  S
C1053      C1054   1.344       .  D
C1053      H1055   1.087       .  S
C1054      H1056   1.087       .  S
C1057      C1058   1.345       .  D
C1057      H1059   1.087       .  S
C1058      H1060   1.087       .  S
C1061      C1062   1.365       .  D
C1061      H1063   1.086       .  S
C1062      H1064   1.086       .  S
C1065      C1066   1.347   1_565  D
C1065      H1067   1.086       .  S
C1066      H1068   1.088       .  S
C1069      C1070   1.353   1_565  D
C1069      H1071   1.087       .  S
C1070      H1072   1.085       .  S
C1073      C1074   1.368   1_565  D
C1073      H1075   1.086       .  S
C1074      H1076   1.086       .  S
C1077      C1078   1.353       .  D
C1077      H1079   1.086       .  S
C1078      H1080   1.087       .  S
C1081      C1082   1.349       .  D
C1081      H1083   1.086       .  S
C1082      H1084   1.088       .  S
C1085      C1086   1.354       .  D
C1085      H1087   1.087       .  S
C1086      H1088   1.087   1_545  S
