geometry optimzed in LAMMPS
_audit_creation_date              2020-12-01 
_audit_creation_method            'lammps2cif' 
_symmetry_space_group_name_H-M    'P1' 
_symmetry_Int_Tables_number       1 
_symmetry_cell_setting            triclinic 
loop_ 
_symmetry_equiv_pos_as_xyz 
  x,y,z 
_cell_length_a                    36.07562807 
_cell_length_b                    29.50339434006868 
_cell_length_c                    33.90739787288419 
_cell_angle_alpha                 90.00796717431578 
_cell_angle_beta                  99.55156292909598 
_cell_angle_gamma                 90.00012362812501 
loop_ 
_atom_site_label 
_atom_site_type_symbol 
_atom_site_fract_x 
_atom_site_fract_y 
_atom_site_fract_z 
_atom_site_charge 
Fe1        Fe  0.11689049  0.64712604  0.35887383     1.65800
Fe2        Fe  0.06613866  0.62414629  0.26880930     1.73200
Fe3        Fe  0.12832046  0.54664036  0.31382299     1.54400
O4          O  0.18042604  0.57162122  0.34124615    -0.80400
O5          O  0.03495362  0.56915276  0.27642110    -0.78700
O6          O  0.17336635  0.64500296  0.35501980    -0.82900
O7          O  0.12495643  0.59485918  0.40160792    -0.77700
O8          O  0.14293146  0.55614417  0.25857667    -0.79500
O9          O  0.03349815  0.65987303  0.30377012    -0.82200
C10         C  0.12161468  0.55180447  0.40064082     0.98500
C11         C  0.19379295  0.61013018  0.35350709     1.06000
O12         O  0.10435296  0.60600480  0.31370534    -1.11200
O13         O  0.09569189  0.68049668  0.25865277    -0.73700
O14         O  0.11178883  0.70492965  0.32143228    -0.77100
O15         O  0.11554507  0.52976418  0.36824102    -0.77800
C16         C  0.10771400  0.71119493  0.28358759     0.97400
O17         O  0.06102416  0.64979717  0.36666135    -0.75800
O18         O  0.09073554  0.58863668  0.22676042    -0.81000
C19         C  0.04511094  0.52817532  0.27618540     1.00100
C20         C  0.11978074  0.56422147  0.22697089     1.06000
O21         O  0.07892724  0.51520931  0.28689320    -0.76600
C22         C  0.03189361  0.65740754  0.34087823     1.04300
Fe23       Fe  0.36941306  0.62783627  0.38811368     1.65800
Fe24       Fe  0.42314371  0.61214797  0.47770142     1.73200
Fe25       Fe  0.36803180  0.52665812  0.43570699     1.54400
O26         O  0.31338010  0.54484793  0.40980455    -0.80400
O27         O  0.45927369  0.56232582  0.46950011    -0.78700
O28         O  0.31369571  0.61810978  0.39256383    -0.82900
O29         O  0.36578395  0.57470184  0.34633136    -0.77700
O30         O  0.35410668  0.53431323  0.49141514    -0.79500
O31         O  0.45080458  0.65316377  0.44162915    -0.82200
C32         C  0.37263969  0.53225509  0.34805143     0.98500
C33         C  0.29651091  0.58111768  0.39642405     1.06000
O34         O  0.38624135  0.58876899  0.43389141    -1.11200
O35         O  0.38817039  0.66321363  0.48791624    -0.73700
O36         O  0.36972646  0.68598489  0.42495267    -0.77100
O37         O  0.38055412  0.51114563  0.38082225    -0.77800
C38         C  0.37373058  0.69259457  0.46279383     0.97400
O39         O  0.42439657  0.63817947  0.37926181    -0.75800
O40         O  0.40435647  0.57297961  0.02128977    -0.81000
C41         C  0.45323921  0.52028275  0.47170466     1.00100
C42         C  0.37780373  0.54501204  0.02237615     1.06000
O43         O  0.42081903  0.50243657  0.46195978    -0.76600
C44         C  0.45250423  0.65071232  0.40456688     1.04300
Fe45       Fe  0.38394163  0.35465855  0.14113156     1.65800
Fe46       Fe  0.43472960  0.37787774  0.23112088     1.73200
Fe47       Fe  0.37243131  0.45520242  0.18604390     1.54400
O48         O  0.38524970  0.47200332  0.13163846    -0.80400
O49         O  0.41008771  0.41342300  0.27311093    -0.78700
O50         O  0.37582748  0.40686756  0.09832863    -0.82900
O51         O  0.32745633  0.35673561  0.14498462    -0.77700
O52         O  0.42176158  0.48675948  0.21299275    -0.79500
O53         O  0.40530446  0.32147841  0.24142749    -0.82200
C54         C  0.30701699  0.39161969  0.14638958     0.98500
C55         C  0.37917956  0.44992508  0.09925869     1.06000
O56         O  0.39645486  0.39586493  0.18623368    -1.11200
O57         O  0.46739736  0.34213952  0.19620173    -0.73700
O58         O  0.43980405  0.35203251  0.13331204    -0.77100
O59         O  0.32036904  0.43015081  0.15859354    -0.77800
C60         C  0.46896347  0.34452129  0.15908191     0.97400
O61         O  0.38912460  0.29692942  0.17868996    -0.75800
O62         O  0.46580737  0.43290901  0.22334845    -0.81000
C63         C  0.38098272  0.43773894  0.27287843     1.00100
C64         C  0.45560066  0.47386094  0.22364664     1.06000
O65         O  0.35779853  0.44570375  0.24127328    -0.76600
C66         C  0.39330420  0.29071438  0.21655158     1.04300
Fe67       Fe  0.13140196  0.37408188  0.11179520     1.65800
Fe68       Fe  0.07773002  0.38961486  0.02215093     1.73200
Fe69       Fe  0.13282189  0.47517365  0.06407809     1.54400
O70         O  0.12030949  0.49081281  0.11895871    -0.80400
O71         O  0.09655433  0.42869412  0.47860624    -0.78700
O72         O  0.13502873  0.42728428  0.15350437    -0.82900
O73         O  0.18711719  0.38374282  0.10733750    -0.77700
O74         O  0.08002900  0.49936745  0.03779030    -0.79500
O75         O  0.11274319  0.33852696  0.01206179    -0.82200
C76         C  0.20432474  0.42069880  0.10341240     0.98500
C77         C  0.12818961  0.46973310  0.15175006     1.06000
O78         O  0.11459483  0.41307753  0.06596043    -1.11200
O79         O  0.05003709  0.34868875  0.05827404    -0.73700
O80         O  0.07641599  0.36378779  0.12063145    -0.77100
O81         O  0.18747578  0.45697005  0.08999435    -0.77800
C82         C  0.04832328  0.35120108  0.09533270     0.97400
O83         O  0.13110435  0.31586196  0.07506601    -0.75800
O84         O  0.04157552  0.43946808  0.03020984    -0.81000
C85         C  0.12308502  0.45669279  0.47751987     1.00100
C86         C  0.04761307  0.48151307  0.02800737     1.06000
O87         O  0.14675111  0.46742349  0.00837860    -0.76600
C88         C  0.12718208  0.30920124  0.03724062     1.04300
Fe89       Fe  0.36747805  0.85473464  0.10898665     1.65800
Fe90       Fe  0.31654218  0.87780332  0.01904701     1.73200
Fe91       Fe  0.37874596  0.95529272  0.06402165     1.54400
O92         O  0.36600158  0.97203898  0.11846776    -0.80400
O93         O  0.34123922  0.91346497  0.47691863    -0.78700
O94         O  0.37567033  0.90694205  0.15177129    -0.82900
O95         O  0.42393003  0.85690063  0.10497298    -0.77700
O96         O  0.32927979  0.98670259  0.03716875    -0.79500
O97         O  0.34609733  0.82151216  0.00874360    -0.82200
C98         C  0.44433357  0.89181947  0.10356337     0.98500
C99         C  0.37224482  0.94998429  0.15084550     1.06000
O100        O  0.35483172  0.89590427  0.06388166    -1.11200
O101        O  0.28402800  0.84196486  0.05406892    -0.73700
O102        O  0.31164248  0.85204472  0.11693265    -0.77100
O103        O  0.43092260  0.93034403  0.09139305    -0.77800
C104        C  0.28247814  0.84442179  0.09119271     0.97400
O105        O  0.36225517  0.79697944  0.07147887    -0.75800
O106        O  0.28532727  0.93273254  0.02681031    -0.81000
C107        C  0.37035337  0.93776732  0.47714854     1.00100
C108        C  0.29545028  0.97371841  0.02653954     1.06000
O109        O  0.39328592  0.94588476  0.00873170    -0.76600
C110        C  0.35809853  0.79076063  0.03362353     1.04300
Fe111      Fe  0.12000431  0.87398189  0.13848331     1.65800
Fe112      Fe  0.17372725  0.88955622  0.22810677     1.73200
Fe113      Fe  0.11865859  0.97512011  0.18615414     1.54400
O114        O  0.13109743  0.99069296  0.13124308    -0.80400
O115        O  0.15453177  0.92879962  0.27159882    -0.78700
O116        O  0.11644180  0.92710916  0.09673920    -0.82900
O117        O  0.06425870  0.88376631  0.14283750    -0.77700
O118        O  0.17151112  0.99925286  0.21237396    -0.79500
O119        O  0.13865384  0.83856747  0.23828900    -0.82200
C120        C  0.04707874  0.92074907  0.14676622     0.98500
C121        C  0.12320361  0.96957384  0.09846811     1.06000
O122        O  0.13684181  0.91300499  0.18429517    -1.11200
O123        O  0.20134897  0.84846766  0.19203423    -0.73700
O124        O  0.17500722  0.86359253  0.12968543    -0.77100
O125        O  0.06396259  0.95697392  0.16027327    -0.77800
C126        C  0.20309516  0.85100315  0.15498710     0.97400
O127        O  0.12020757  0.81585999  0.17529529    -0.75800
O128        O  0.20992041  0.93931029  0.21991997    -0.81000
C129        C  0.12798673  0.95676758  0.27269950     1.00100
C130        C  0.20392255  0.98136539  0.22211149     1.06000
O131        O  0.10477965  0.96744616  0.24187426    -0.76600
C132        C  0.12412340  0.80925886  0.21312869     1.04300
Fe133      Fe  0.13428854  0.14715916  0.39135984     1.65800
Fe134      Fe  0.18507919  0.12412205  0.48138500     1.73200
Fe135      Fe  0.12285641  0.04666162  0.43637619     1.54400
O136        O  0.07073763  0.07166384  0.40895655    -0.80400
O137        O  0.21625011  0.06913966  0.47368915    -0.78700
O138        O  0.07780991  0.14505115  0.39522554    -0.82900
O139        O  0.12618376  0.09492430  0.34860630    -0.77700
O140        O  0.10827242  0.05612424  0.49164563    -0.79500
O141        O  0.21770154  0.15988161  0.44642166    -0.82200
C142        C  0.12952607  0.05187379  0.34956332     0.98500
C143        C  0.05737528  0.11017530  0.39669609     1.06000
O144        O  0.14683187  0.10601945  0.43650696    -1.11200
O145        O  0.15552841  0.18046115  0.49159847    -0.73700
O146        O  0.13942692  0.20492860  0.42883305    -0.77100
O147        O  0.13562533  0.02983005  0.38195340    -0.77800
C148        C  0.14349392  0.21116548  0.46667964     0.97400
O149        O  0.19014901  0.14981814  0.38353762    -0.75800
O150        O  0.16020365  0.08845093  0.02345287    -0.81000
C151        C  0.20609174  0.02816473  0.47394683     1.00100
C152        C  0.13111481  0.06411661  0.02323966     1.06000
O153        O  0.17226302  0.01520759  0.46328126    -0.76600
C154        C  0.21929136  0.15742349  0.40930752     1.04300
Fe155      Fe  0.38174567  0.12787956  0.36190952     1.65800
Fe156      Fe  0.32795461  0.11218369  0.27235813     1.73200
Fe157      Fe  0.38313079  0.02671980  0.31427470     1.53600
O158        O  0.43780692  0.04493246  0.34013149    -0.80400
O159        O  0.29183699  0.06239071  0.28065859    -0.78700
O160        O  0.43747243  0.11816709  0.35747087    -0.82900
O161        O  0.38538739  0.07474479  0.40368259    -0.77700
O162        O  0.39698745  0.03441727  0.25854786    -0.79500
O163        O  0.30035625  0.15327493  0.30844702    -0.82200
C164        C  0.37859736  0.03228059  0.40195986     0.98500
C165        C  0.45466976  0.08119182  0.35357281     1.06000
O166        O  0.36490258  0.08881436  0.31613322    -1.11200
O167        O  0.36294442  0.16321023  0.26207831    -0.73700
O168        O  0.38143097  0.18599878  0.32504222    -0.77100
O169        O  0.37070261  0.01115852  0.36918710    -0.77800
C170        C  0.37743155  0.19258275  0.28719672     0.97400
O171        O  0.32676296  0.13821743  0.37078783    -0.75800
O172        O  0.34714545  0.07293626  0.22886378    -0.81000
C173        C  0.29786829  0.02035103  0.27840146     1.00100
C174        C  0.37373811  0.04504146  0.22773905     1.06000
O175        O  0.33030186  0.00250549  0.28807238    -0.76600
C176        C  0.29865525  0.15078834  0.34550657     1.04300
C177        C  0.26184744  0.16036066  0.35828685    -0.15100
C178        C  0.25694441  0.16076568  0.39685998    -0.30300
H179        H  0.23738746  0.16294797  0.33491321     0.13900
H180        H  0.28143891  0.15908424  0.42026808     0.14500
C181        C  0.01650616  0.11445922  0.38266190    -0.15100
C182        C  0.49584115  0.07896966  0.36655599    -0.30300
H183        H  0.00361985  0.14760437  0.38384772     0.13900
H184        H  0.50946163  0.04649060  0.36395423     0.14500
C185        C  0.26627266  0.99176619  0.26149009    -0.15100
C186        C  0.23553153  0.00993378  0.23901678    -0.30300
H187        H  0.26906816  0.95532883  0.26565926     0.13900
H188        H  0.23274339  0.04637126  0.23484325     0.14500
C189        C  0.12552443  0.02631956  0.31157166    -0.15100
C190        C  0.12675811  0.98056839  0.31053670    -0.30300
H191        H  0.12203050  0.04543123  0.28379196     0.13900
H192        H  0.13247103  0.96119039  0.33811103     0.14500
C193        C  0.12145242  0.99555461  0.06088694    -0.15100
C194        C  0.12669181  0.04089833  0.06053947    -0.30300
H195        H  0.11671028  0.97692277  0.03283718     0.13900
H196        H  0.13371606  0.05948473  0.08843320     0.14500
C197        C  0.23447481  0.99466411  0.48915445    -0.15100
C198        C  0.26702706  0.00719806  0.01135072    -0.30300
H199        H  0.22761045  0.95906312  0.48392574     0.13900
H200        H  0.27387372  0.04280353  0.01657105     0.14500
C201        C  0.37482450  0.96098577  0.43985757    -0.15100
C202        C  0.38029624  0.00629387  0.43953799    -0.30300
H203        H  0.36766767  0.94245440  0.41195060     0.13900
H204        H  0.38516029  0.02489671  0.46759959     0.14500
C205        C  0.37497283  0.02126238  0.18989463    -0.15100
C206        C  0.37630588  0.97551684  0.18885154    -0.30300
H207        H  0.36915855  0.04063571  0.16232420     0.13900
H208        H  0.37990461  0.95639597  0.21662919     0.14500
C209        C  0.23992755  0.84147011  0.14223851    -0.15100
C210        C  0.24483765  0.84105272  0.10366791    -0.30300
H211        H  0.26438465  0.83892095  0.16561999     0.13900
H212        H  0.22033920  0.84269387  0.08026160     0.14500
C213        C  0.48521749  0.88755577  0.11757005    -0.15100
C214        C  0.00590196  0.92301588  0.13375528    -0.30300
H215        H  0.49811002  0.85442218  0.11632422     0.13900
H216        H  0.99229086  0.95548994  0.13640503     0.14500
C217        C  0.13385803  0.25579529  0.48218735    -0.15100
C218        C  0.13879190  0.26531358  0.02190814    -0.30300
H219        H  0.12201841  0.28114666  0.46046352     0.13900
H220        H  0.15072483  0.24002582  0.04364385     0.14500
C221        C  0.38386669  0.24603723  0.23214561    -0.15100
C222        C  0.38898868  0.23644699  0.27177153    -0.30300
H223        H  0.37196595  0.22065490  0.21047559     0.13900
H224        H  0.40098239  0.26175943  0.29346003     0.14500
C225        C  0.26615478  0.38734787  0.13235375    -0.15100
C226        C  0.24549509  0.42287802  0.11633207    -0.30300
H227        H  0.25325161  0.35421081  0.13352567     0.13900
H228        H  0.25912424  0.45535465  0.11374901     0.14500
C229        C  0.50660987  0.34120287  0.14662679    -0.15100
C230        C  0.01151546  0.34162788  0.10809795    -0.30300
H231        H  0.53110675  0.34288830  0.17003304     0.13900
H232        H  0.98705806  0.33903046  0.08472100     0.14500
C233        C  0.36223508  0.73649020  0.47821971    -0.15100
C234        C  0.36755419  0.74609362  0.01804673    -0.30300
H235        H  0.35022869  0.76179637  0.45653868     0.13900
H236        H  0.37945104  0.72071792  0.03971791     0.14500
C237        C  0.37098966  0.50626959  0.31047594    -0.15100
C238        C  0.37651556  0.46097240  0.31016596    -0.30300
H239        H  0.36610226  0.52485907  0.28241229     0.13900
H240        H  0.38369456  0.44246032  0.33807579     0.14500
C241        C  0.37655329  0.52120718  0.06021028    -0.15100
C242        C  0.37522898  0.47545532  0.06125249    -0.30300
H243        H  0.38229970  0.54058738  0.08778620     0.13900
H244        H  0.37170449  0.45632868  0.03347552     0.14500
C245        C  0.48481346  0.49168572  0.48862926    -0.15100
C246        C  0.01604269  0.51011019  0.01105839    -0.30300
H247        H  0.48201752  0.45525011  0.48443532     0.13900
H248        H  0.01883808  0.54654463  0.01525864     0.14500
C249        C  0.11731696  0.75584750  0.26808767    -0.15100
C250        C  0.11239464  0.76544477  0.22847590    -0.30300
H251        H  0.12919238  0.78118852  0.28981050     0.13900
H252        H  0.10042371  0.74017207  0.20673709     0.14500
C253        C  0.12557990  0.52624676  0.43863437    -0.15100
C254        C  0.12432788  0.48049164  0.43967760    -0.30300
H255        H  0.12906384  0.54536650  0.46641385     0.13900
H256        H  0.11862472  0.46110680  0.41210211     0.14500
C257        C  0.12982008  0.49573346  0.18932081    -0.15100
C258        C  0.12422117  0.54101716  0.18964927    -0.30300
H259        H  0.13475576  0.47714464  0.21738394     0.13900
H260        H  0.11698585  0.55952562  0.16174407     0.14500
C261        C  0.23466111  0.61440789  0.36749045    -0.15100
C262        C  0.25534465  0.57888913  0.38348408    -0.30300
H263        H  0.24754545  0.64755858  0.36633958     0.13900
H264        H  0.24173720  0.54639436  0.38604768     0.14500
C265        C  0.48931741  0.66028229  0.39181373    -0.15100
C266        C  0.99423451  0.66074720  0.35329956    -0.30300
H267        H  0.51376821  0.66286728  0.41520031     0.13900
H268        H  0.96974939  0.65907358  0.32987839     0.14500
C269        C  0.01674536  0.49467142  0.26095766    -0.15100
C270        C  0.48394031  0.50739193  0.23888774    -0.30300
H271        H  0.02357674  0.45907744  0.26627774     0.13900
H272        H  0.47709564  0.54298481  0.23358673     0.14500
Fe273      Fe  0.11718306  0.64699364  0.85881427     1.65800
Fe274      Fe  0.06632253  0.62401255  0.76881789     1.73200
Fe275      Fe  0.12851856  0.54649211  0.81376410     1.54400
O276        O  0.18068076  0.57143677  0.84121748    -0.80400
O277        O  0.03509806  0.56904524  0.77645873    -0.78700
O278        O  0.17363564  0.64485177  0.85486450    -0.82900
O279        O  0.12530436  0.59472259  0.90153304    -0.77700
O280        O  0.14311186  0.55605445  0.75852189    -0.79500
O281        O  0.03376125  0.65979690  0.80382689    -0.82200
C282        C  0.12193582  0.55167082  0.90058072     0.98500
C283        C  0.19406327  0.60996870  0.85341805     1.06000
O284        O  0.10456860  0.60585908  0.81367511    -1.11200
O285        O  0.09591528  0.68030869  0.75860084    -0.73700
O286        O  0.11205367  0.70478457  0.82135877    -0.77100
O287        O  0.11575385  0.52962122  0.86818738    -0.77800
C288        C  0.10797103  0.71101631  0.78350939     0.97400
O289        O  0.06133840  0.64970962  0.86670028    -0.75800
O290        O  0.09085302  0.58846498  0.72676049    -0.81000
C291        C  0.04523717  0.52806647  0.77611947     1.00100
C292        C  0.11991156  0.56408711  0.72694395     1.06000
O293        O  0.07906694  0.51508966  0.78679078    -0.76600
C294        C  0.03219377  0.65736055  0.84094590     1.04300
Fe295      Fe  0.36972983  0.62803680  0.88826954     1.65800
Fe296      Fe  0.42351699  0.61232656  0.97783112     1.73200
Fe297      Fe  0.36845226  0.52683149  0.93580407     1.54400
O298        O  0.31376081  0.54499328  0.90996424    -0.80400
O299        O  0.45971111  0.56262290  0.96951438    -0.78700
O300        O  0.31399393  0.61825719  0.89270017    -0.82900
O301        O  0.36606399  0.57497198  0.84644216    -0.77700
O302        O  0.35458341  0.53437458  0.99154504    -0.79500
O303        O  0.45107327  0.65350571  0.94177429    -0.82200
C304        C  0.37290087  0.53252574  0.84812866     0.98500
C305        C  0.29684560  0.58122812  0.89655048     1.06000
O306        O  0.38660247  0.58895300  0.93402199    -1.11200
O307        O  0.38845060  0.66326554  0.98811622    -0.73700
O308        O  0.37005474  0.68611637  0.92516150    -0.77100
O309        O  0.38090917  0.51140466  0.88088236    -0.77800
C310        C  0.37400602  0.69266123  0.96300525     0.97400
O311        O  0.42471944  0.63838185  0.87942382    -0.75800
O312        O  0.40385259  0.57297457  0.52116659    -0.81000
C313        C  0.45371894  0.52056557  0.97167463     1.00100
C314        C  0.37727766  0.54504484  0.52225879     1.06000
O315        O  0.42130419  0.50268319  0.96196575    -0.76600
C316        C  0.45281417  0.65096162  0.90472510     1.04300
Fe317      Fe  0.38358895  0.35486518  0.64114793     1.65800
Fe318      Fe  0.43444451  0.37800381  0.73110887     1.73200
Fe319      Fe  0.37222339  0.45544464  0.68607545     1.54400
O320        O  0.38498133  0.47221486  0.63163234    -0.80400
O321        O  0.40988631  0.41359406  0.77311972    -0.78700
O322        O  0.37545449  0.40706464  0.59836002    -0.82900
O323        O  0.32713173  0.35701048  0.64508938    -0.77700
O324        O  0.42165815  0.48691503  0.71299682    -0.79500
O325        O  0.40490905  0.32168713  0.74141123    -0.82200
C326        C  0.30670325  0.39189989  0.64650865     0.98500
C327        C  0.37881975  0.45011673  0.59926479     1.06000
O328        O  0.39618440  0.39607289  0.68623846    -1.11200
O329        O  0.46702782  0.34219059  0.69614384    -0.73700
O330        O  0.43943565  0.35215688  0.63326079    -0.77100
O331        O  0.32008126  0.43044374  0.65867109    -0.77800
C332        C  0.46858882  0.34456868  0.65902073     0.97400
O333        O  0.38875195  0.29712793  0.67868124    -0.75800
O334        O  0.46563147  0.43297402  0.72338057    -0.81000
C335        C  0.38082219  0.43796897  0.77291332     1.00100
C336        C  0.45549049  0.47395420  0.72366891     1.06000
O337        O  0.35763082  0.44598671  0.74132717    -0.76600
C338        C  0.39289243  0.29092741  0.71653966     1.04300
Fe339      Fe  0.13104363  0.37391351  0.61173521     1.65800
Fe340      Fe  0.07733628  0.38945523  0.52209722     1.73200
Fe341      Fe  0.13235487  0.47503995  0.56407381     1.54400
O342        O  0.11985594  0.49058198  0.61896535    -0.80400
O343        O  0.09703579  0.42870458  0.97863995    -0.78700
O344        O  0.13464066  0.42704882  0.65347870    -0.82900
O345        O  0.18677878  0.38369007  0.60734329    -0.77700
O346        O  0.07952667  0.49915319  0.53783341    -0.79500
O347        O  0.11243474  0.33847372  0.51195649    -0.82200
C348        C  0.20393371  0.42069849  0.60344656     0.98500
C349        C  0.12781919  0.46949667  0.65174372     1.06000
O350        O  0.11419785  0.41291995  0.56591799    -1.11200
O351        O  0.04971004  0.34838895  0.55818506    -0.73700
O352        O  0.07604682  0.36354875  0.62053786    -0.77100
O353        O  0.18703106  0.45691915  0.58998149    -0.77800
C354        C  0.04796206  0.35094690  0.59523404     0.97400
O355        O  0.13081451  0.31577035  0.57495425    -0.75800
O356        O  0.04112209  0.43920645  0.53024572    -0.81000
C357        C  0.12358803  0.45666321  0.97753787     1.00100
C358        C  0.04712205  0.48126352  0.52807772     1.06000
O359        O  0.14627132  0.46739256  0.50836015    -0.76600
C360        C  0.12694065  0.30916877  0.53712625     1.04300
Fe361      Fe  0.36740592  0.85473402  0.60888143     1.65800
Fe362      Fe  0.31658522  0.87794194  0.51891187     1.73200
Fe363      Fe  0.37889232  0.95527386  0.56398067     1.54400
O364        O  0.36605553  0.97209721  0.61838634    -0.80400
O365        O  0.34103398  0.91343563  0.97698152    -0.78700
O366        O  0.37553929  0.90697004  0.65168618    -0.82900
O367        O  0.42387049  0.85679648  0.60496771    -0.77700
O368        O  0.32955397  0.98682283  0.53700008    -0.79500
O369        O  0.34600289  0.82154239  0.50859343    -0.82200
C370        C  0.44431893  0.89167247  0.60359128     0.98500
C371        C  0.37215696  0.95002745  0.65076569     1.06000
O372        O  0.35486493  0.89593826  0.56379262    -1.11200
O373        O  0.28392217  0.84222788  0.55385700    -0.73700
O374        O  0.31155929  0.85207526  0.61674557    -0.77100
O375        O  0.43096940  0.93022525  0.59144690    -0.77800
C376        C  0.28238882  0.84455565  0.59099024     0.97400
O377        O  0.36220774  0.79699764  0.57132107    -0.75800
O378        O  0.28550355  0.93297579  0.52667454    -0.81000
C379        C  0.37006907  0.93786789  0.97715918     1.00100
C380        C  0.29571030  0.97392454  0.52634688     1.06000
O381        O  0.39353667  0.94574314  0.50875536    -0.76600
C382        C  0.35801089  0.79078135  0.53345794     1.04300
Fe383      Fe  0.11997728  0.87392839  0.63840112     1.65800
Fe384      Fe  0.17367530  0.88954983  0.72803045     1.73200
Fe385      Fe  0.11852648  0.97503830  0.68610582     1.54400
O386        O  0.13105551  0.99065913  0.63122970    -0.80400
O387        O  0.15436693  0.92869157  0.77153946    -0.78700
O388        O  0.11635994  0.92711631  0.59667790    -0.82900
O389        O  0.06423686  0.88359259  0.64281172    -0.77700
O390        O  0.17128801  0.99927077  0.71240873    -0.79500
O391        O  0.13871300  0.83843654  0.73817561    -0.82200
C392        C  0.04703917  0.92056596  0.64671779     0.98500
C393        C  0.12318505  0.96957241  0.59843470     1.06000
O394        O  0.13677051  0.91294708  0.68423174    -1.11200
O395        O  0.20138407  0.84860243  0.69192199    -0.73700
O396        O  0.17496944  0.86363697  0.62957087    -0.77100
O397        O  0.06389532  0.95682093  0.66016609    -0.77800
C398        C  0.20308115  0.85109205  0.65485861     0.97400
O399        O  0.12028582  0.81574570  0.67517552    -0.75800
O400        O  0.20977226  0.93940912  0.71987344    -0.81000
C401        C  0.12778657  0.95661697  0.77264435     1.00100
C402        C  0.20371373  0.98144039  0.72213247     1.06000
O403        O  0.10459081  0.96729875  0.74180623    -0.76600
C404        C  0.12424596  0.80910409  0.71300735     1.04300
Fe405      Fe  0.13404576  0.14699334  0.89142359     1.65800
Fe406      Fe  0.18484263  0.12391655  0.98143503     1.73200
Fe407      Fe  0.12256988  0.04649997  0.93641226     1.54400
O408        O  0.07047016  0.07152149  0.90892719    -0.80400
O409        O  0.21596805  0.06886946  0.97378849    -0.78700
O410        O  0.07758094  0.14492841  0.89532715    -0.82900
O411        O  0.12592173  0.09472269  0.84867100    -0.77700
O412        O  0.10793703  0.05608465  0.99164013    -0.79500
O413        O  0.21750563  0.15959389  0.94646946    -0.82200
C414        C  0.12926969  0.05166491  0.84961159     0.98500
C415        C  0.05712573  0.11006543  0.89673847     1.06000
O416        O  0.14659079  0.10583747  0.93655052    -1.11200
O417        O  0.15536768  0.18031206  0.99166249    -0.73700
O418        O  0.13921039  0.20477358  0.92890690    -0.77100
O419        O  0.13537702  0.02961177  0.88200134    -0.77800
C420        C  0.14334152  0.21102738  0.96675760     0.97400
O421        O  0.18989812  0.14966503  0.88357911    -0.75800
O422        O  0.16051301  0.08855609  0.52343243    -0.81000
C423        C  0.20577579  0.02791174  0.97411873     1.00100
C424        C  0.13146661  0.06414132  0.52323614     1.06000
O425        O  0.17193863  0.01499195  0.96341925    -0.76600
C426        C  0.21905395  0.15723962  0.90934126     1.04300
Fe427      Fe  0.38148073  0.12801076  0.86188053     1.65800
Fe428      Fe  0.32768010  0.11229399  0.77232598     1.73200
Fe429      Fe  0.38282984  0.02683120  0.81427591     1.53600
O430        O  0.43749112  0.04503062  0.84014176    -0.80400
O431        O  0.29157712  0.06250269  0.78064275    -0.78700
O432        O  0.43721253  0.11828891  0.85742298    -0.82900
O433        O  0.38513916  0.07488273  0.90367249    -0.77700
O434        O  0.39670222  0.03445384  0.75853976    -0.79500
O435        O  0.30006638  0.15335821  0.80842664    -0.82200
C436        C  0.37828311  0.03243288  0.90195476     0.98500
C437        C  0.45438082  0.08128024  0.85355560     1.06000
O438        O  0.36463226  0.08894308  0.81610218    -1.11200
O439        O  0.36263422  0.16336102  0.76204698    -0.73700
O440        O  0.38112062  0.18614213  0.82501452    -0.77100
O441        O  0.37034751  0.01132397  0.86918068    -0.77800
C442        C  0.37708464  0.19275056  0.78716996     0.97400
O443        O  0.32650220  0.13832141  0.87076557    -0.75800
O444        O  0.34690015  0.07303070  0.72882765    -0.81000
C445        C  0.29760546  0.02046360  0.77840891     1.00100
C446        C  0.37347326  0.04509279  0.72771526     1.06000
O447        O  0.33003098  0.00261589  0.78807460    -0.76600
C448        C  0.29837773  0.15085556  0.84548943     1.04300
C449        C  0.26156890  0.16035939  0.85828849    -0.15100
C450        C  0.25668689  0.16066825  0.89686743    -0.30300
H451        H  0.23709862  0.16295330  0.83492792     0.13900
H452        H  0.28119365  0.15897183  0.92026034     0.14500
C453        C  0.01625820  0.11441837  0.88272433    -0.15100
C454        C  0.49554789  0.07898075  0.86653309    -0.30300
H455        H  0.00340211  0.14757371  0.88396870     0.13900
H456        H  0.50912943  0.04648858  0.86387106     0.14500
C457        C  0.26602092  0.99187618  0.76152354    -0.15100
C458        C  0.23526752  0.01004055  0.73908572    -0.30300
H459        H  0.26884674  0.95543610  0.76565476     0.13900
H460        H  0.23244060  0.04648029  0.73495232     0.14500
C461        C  0.12527341  0.02612882  0.81159582    -0.15100
C462        C  0.12650849  0.98037403  0.81050760    -0.30300
H463        H  0.12179559  0.04527033  0.78383290     0.13900
H464        H  0.13220434  0.96096611  0.83806577     0.14500
C465        C  0.12153884  0.99558361  0.56086565    -0.15100
C466        C  0.12707281  0.04088460  0.56054967    -0.30300
H467        H  0.11662533  0.97699853  0.53279601     0.13900
H468        H  0.13428201  0.05939297  0.58846270     0.14500
C469        C  0.23413668  0.99439989  0.98942038    -0.15100
C470        C  0.26736252  0.00744716  0.51108669    -0.30300
H471        H  0.22728360  0.95879597  0.98420048     0.13900
H472        H  0.27423308  0.04304643  0.51631316     0.14500
C473        C  0.37442596  0.96113867  0.93984736    -0.15100
C474        C  0.37996843  0.00643877  0.93953459    -0.30300
H475        H  0.36718899  0.94263455  0.91193567     0.13900
H476        H  0.38491803  0.02502347  0.96760359     0.14500
C477        C  0.37473395  0.02131177  0.68985687    -0.15100
C478        C  0.37610677  0.97555979  0.68878485    -0.30300
H479        H  0.36895139  0.04069662  0.66229109     0.13900
H480        H  0.37966644  0.95642542  0.71655389     0.14500
C481        C  0.23988785  0.84155433  0.64206509    -0.15100
C482        C  0.24476038  0.84116469  0.60348194    -0.30300
H483        H  0.26436118  0.83899108  0.66542504     0.13900
H484        H  0.22024893  0.84283407  0.58009328     0.14500
C485        C  0.48518463  0.88734531  0.61760026    -0.15100
C486        C  0.00587448  0.92281258  0.63375474    -0.30300
H487        H  0.49806384  0.85420367  0.61635572     0.13900
H488        H  0.99227254  0.95529288  0.63641053     0.14500
C489        C  0.13381339  0.25569522  0.98229377    -0.15100
C490        C  0.13869907  0.26536299  0.52179773    -0.30300
H491        H  0.12196567  0.28105344  0.96058098     0.13900
H492        H  0.15062978  0.24008117  0.54354078     0.14500
C493        C  0.38341730  0.24626492  0.73213136    -0.15100
C494        C  0.38857303  0.23665307  0.77175359    -0.30300
H495        H  0.37150401  0.22089146  0.71045924     0.13900
H496        H  0.40057600  0.26195829  0.79344438     0.14500
C497        C  0.26582595  0.38757171  0.63253129    -0.15100
C498        C  0.24510143  0.42301728  0.61643959    -0.30300
H499        H  0.25297118  0.35441138  0.63374191     0.13900
H500        H  0.25867506  0.45552176  0.61381959     0.14500
C501        C  0.50623109  0.34115059  0.64656311    -0.15100
C502        C  0.01113242  0.34142826  0.60798772    -0.30300
H503        H  0.53072545  0.34285316  0.66997170     0.13900
H504        H  0.98667757  0.33883006  0.58460814     0.14500
C505        C  0.36244250  0.73651010  0.97842671    -0.15100
C506        C  0.36742422  0.74610282  0.51784640    -0.30300
H507        H  0.35045737  0.76182042  0.95673860     0.13900
H508        H  0.37934341  0.72072715  0.53950670     0.14500
C509        C  0.37110826  0.50655098  0.81053755    -0.15100
C510        C  0.37643470  0.46122205  0.81020659    -0.30300
H511        H  0.36626876  0.52516083  0.78248335     0.13900
H512        H  0.38354654  0.44267360  0.83810541     0.14500
C513        C  0.37598305  0.52134126  0.56012343    -0.15100
C514        C  0.37478494  0.47559285  0.56123412    -0.30300
H515        H  0.38165983  0.54078482  0.58766814     0.13900
H516        H  0.37131917  0.45641730  0.53348465     0.14500
C517        C  0.48533054  0.49198585  0.98852542    -0.15100
C518        C  0.01553081  0.50984400  0.51118133    -0.30300
H519        H  0.48253407  0.45555189  0.98431909     0.13900
H520        H  0.01832035  0.54627664  0.51540073     0.14500
C521        C  0.11757718  0.75564864  0.76797405    -0.15100
C522        C  0.11262547  0.76523561  0.72835679    -0.30300
H523        H  0.12943956  0.78100892  0.78968476     0.13900
H524        H  0.10067448  0.73994394  0.70662649     0.14500
C525        C  0.12599852  0.52614521  0.93858849    -0.15100
C526        C  0.12484986  0.48039232  0.93967425    -0.30300
H527        H  0.12945428  0.54529448  0.96635141     0.13900
H528        H  0.11918640  0.46096554  0.91211943     0.14500
C529        C  0.12958890  0.49550205  0.68931653    -0.15100
C530        C  0.12427587  0.54083242  0.68964034    -0.30300
H531        H  0.13441847  0.47690408  0.71737748     0.13900
H532        H  0.11716814  0.55937646  0.66173879     0.14500
C533        C  0.23494301  0.61430645  0.86740368    -0.15100
C534        C  0.25567215  0.57889308  0.88355740    -0.30300
H535        H  0.24779556  0.64746185  0.86615080     0.13900
H536        H  0.24210087  0.54639427  0.88621082     0.14500
C537        C  0.48964379  0.66046880  0.89197350    -0.15100
C538        C  0.99455290  0.66078700  0.85340293    -0.30300
H539        H  0.51410079  0.66304014  0.91535322     0.13900
H540        H  0.97005713  0.65912108  0.82999408     0.14500
C541        C  0.01682798  0.49458961  0.76083205    -0.15100
C542        C  0.48390443  0.50744546  0.73891307    -0.30300
H543        H  0.02367307  0.45897910  0.76600858     0.13900
H544        H  0.47705317  0.54305559  0.73374319     0.14500
Fe545      Fe  0.61689482  0.64707633  0.35884620     1.65800
Fe546      Fe  0.56616422  0.62410811  0.26877247     1.73200
Fe547      Fe  0.62835226  0.54660389  0.31378231     1.54400
O548        O  0.68045118  0.57159742  0.34121127    -0.80400
O549        O  0.53498667  0.56910611  0.27636980    -0.78700
O550        O  0.67337192  0.64497204  0.35500140    -0.82900
O551        O  0.62496356  0.59480554  0.40156954    -0.77700
O552        O  0.64296481  0.55612458  0.25853792    -0.79500
O553        O  0.53351087  0.65981713  0.30373010    -0.82200
C554        C  0.62163505  0.55175063  0.40060044     0.98500
C555        C  0.69380679  0.61010779  0.35348387     1.06000
O556        O  0.60437345  0.60596208  0.31367099    -1.11200
O557        O  0.59571304  0.68046647  0.25863428    -0.73700
O558        O  0.61178707  0.70488796  0.32141936    -0.77100
O559        O  0.61558159  0.52970907  0.36820025    -0.77800
C560        C  0.60771982  0.71116248  0.28357718     0.97400
O561        O  0.56102587  0.64972898  0.36662318    -0.75800
O562        O  0.59077035  0.58861980  0.22672156    -0.81000
C563        C  0.54514588  0.52812910  0.27613833     1.00100
C564        C  0.61981773  0.56421022  0.22693127     1.06000
O565        O  0.57896305  0.51516493  0.28684722    -0.76600
C566        C  0.53189947  0.65734475  0.34083604     1.04300
Fe567      Fe  0.86941542  0.62785735  0.38814607     1.65800
Fe568      Fe  0.92313014  0.61216934  0.47774421     1.73200
Fe569      Fe  0.86803835  0.52667011  0.43572565     1.54400
O570        O  0.81338869  0.54485516  0.40981937    -0.80400
O571        O  0.95927106  0.56235128  0.46956345    -0.78700
O572        O  0.81369822  0.61812168  0.39259038    -0.82900
O573        O  0.86578975  0.57472972  0.34635881    -0.77700
O574        O  0.85410521  0.53430220  0.49143254    -0.79500
O575        O  0.95080073  0.65318519  0.44167749    -0.82200
C576        C  0.87264721  0.53228383  0.34807282     0.98500
C577        C  0.79651742  0.58112394  0.39644061     1.06000
O578        O  0.88624110  0.58878635  0.43392310    -1.11200
O579        O  0.88814803  0.66323319  0.48794626    -0.73700
O580        O  0.86972411  0.68600607  0.42498098    -0.77100
O581        O  0.88056849  0.51117119  0.38084114    -0.77800
C582        C  0.87372064  0.69261763  0.46282065     0.97400
O583        O  0.92440000  0.63820823  0.37930490    -0.75800
O584        O  0.90435958  0.57295718  0.02128496    -0.81000
C585        C  0.95323971  0.52030445  0.47174197     1.00100
C586        C  0.87779483  0.54500822  0.02237444     1.06000
O587        O  0.92082375  0.50245465  0.46197848    -0.76600
C588        C  0.95250381  0.65074261  0.40461476     1.04300
Fe589      Fe  0.88394890  0.35467929  0.14114605     1.65800
Fe590      Fe  0.93471654  0.37791090  0.23114118     1.73200
Fe591      Fe  0.87241776  0.45522629  0.18604798     1.54400
O592        O  0.88523757  0.47202085  0.13164199    -0.80400
O593        O  0.91006579  0.41345327  0.27312377    -0.78700
O594        O  0.87583153  0.40687965  0.09833895    -0.82900
O595        O  0.82746237  0.35674363  0.14499099    -0.77700
O596        O  0.92174406  0.48679370  0.21299462    -0.79500
O597        O  0.90529190  0.32150920  0.24144149    -0.82200
C598        C  0.80701662  0.39162263  0.14639254     0.98500
C599        C  0.87917621  0.44993718  0.09926493     1.06000
O600        O  0.89644825  0.39589183  0.18624668    -1.11200
O601        O  0.96739356  0.34217337  0.19623261    -0.73700
O602        O  0.93981333  0.35206431  0.13333822    -0.77100
O603        O  0.82036035  0.43015805  0.15859712    -0.77800
C604        C  0.96896730  0.34455096  0.15911465     0.97400
O605        O  0.88913833  0.29695310  0.17870346    -0.75800
O606        O  0.96579220  0.43294670  0.22337443    -0.81000
C607        C  0.88096254  0.43777237  0.27288751     1.00100
C608        C  0.95558257  0.47389878  0.22366096     1.06000
O609        O  0.85778283  0.44574157  0.24127962    -0.76600
C610        C  0.89330825  0.29074004  0.21656408     1.04300
Fe611      Fe  0.63139672  0.37407729  0.11175444     1.65800
Fe612      Fe  0.57773423  0.38961258  0.02210302     1.73200
Fe613      Fe  0.63283947  0.47516442  0.06402807     1.54400
O614        O  0.62033628  0.49081388  0.11891084    -0.80400
O615        O  0.59655434  0.42869048  0.47859641    -0.78700
O616        O  0.63502403  0.42727923  0.15345776    -0.82900
O617        O  0.68711761  0.38372861  0.10730794    -0.77700
O618        O  0.58005214  0.49937234  0.03774589    -0.79500
O619        O  0.61273723  0.33850770  0.01202584    -0.82200
C620        C  0.70433074  0.42067854  0.10337250     0.98500
C621        C  0.62820187  0.46973091  0.15170204     1.06000
O622        O  0.61460026  0.41307180  0.06591404    -1.11200
O623        O  0.55002358  0.34870521  0.05822584    -0.73700
O624        O  0.57640710  0.36378994  0.12058507    -0.77100
O625        O  0.68748839  0.45694753  0.08994005    -0.77800
C626        C  0.54831257  0.35120879  0.09528595     0.97400
O627        O  0.63109567  0.31585469  0.07503435    -0.75800
O628        O  0.54159070  0.43948000  0.03015151    -0.81000
C629        C  0.62309588  0.45666930  0.47749882     1.00100
C630        C  0.54763446  0.48152482  0.02796047     1.06000
O631        O  0.64676354  0.46741107  0.00832625    -0.76600
C632        C  0.62717182  0.30918552  0.03721095     1.04300
Fe633      Fe  0.86748228  0.85469776  0.10902995     1.65800
Fe634      Fe  0.81653551  0.87776850  0.01909328     1.73200
Fe635      Fe  0.87872934  0.95526356  0.06407001     1.54400
O636        O  0.86597977  0.97199714  0.11851452    -0.80400
O637        O  0.84127142  0.91351089  0.47694237    -0.78700
O638        O  0.87566957  0.90690366  0.15181982    -0.82900
O639        O  0.92393414  0.85687868  0.10501477    -0.77700
O640        O  0.82925811  0.98666467  0.03721814    -0.79500
O641        O  0.84609848  0.82148540  0.00878150    -0.82200
C642        C  0.94433052  0.89180445  0.10360617     0.98500
C643        C  0.87223433  0.94994536  0.15089291     1.06000
O644        O  0.85482587  0.89586973  0.06392735    -1.11200
O645        O  0.78403139  0.84191566  0.05411626    -0.73700
O646        O  0.81164754  0.85199669  0.11697922    -0.77100
O647        O  0.93091075  0.93032633  0.09143988    -0.77800
C648        C  0.78248228  0.84437487  0.09124013     0.97400
O649        O  0.86226698  0.79694598  0.07151391    -0.75800
O650        O  0.78531059  0.93268926  0.02686289    -0.81000
C651        C  0.87038177  0.93782160  0.47718312     1.00100
C652        C  0.79542952  0.97367661  0.02658907     1.06000
O653        O  0.89327100  0.94586643  0.00878037    -0.76600
C654        C  0.85810808  0.79073246  0.03365709     1.04300
Fe655      Fe  0.62000461  0.87396526  0.13850040     1.65800
Fe656      Fe  0.67370861  0.88954965  0.22813627     1.73200
Fe657      Fe  0.61865100  0.97511190  0.18615761     1.54400
O658        O  0.63109671  0.99067057  0.13124723    -0.80400
O659        O  0.65449973  0.92879598  0.27161776    -0.78700
O660        O  0.61644455  0.92708172  0.09675148    -0.82900
O661        O  0.56425560  0.88375227  0.14284040    -0.77700
O662        O  0.67149961  0.99924871  0.21237899    -0.79500
O663        O  0.63863059  0.83855906  0.23830547    -0.82200
C664        C  0.54707620  0.92073784  0.14676211     0.98500
C665        C  0.62320108  0.96954641  0.09847515     1.06000
O666        O  0.63683409  0.91299501  0.18431205    -1.11200
O667        O  0.70134404  0.84846258  0.19207361    -0.73700
O668        O  0.67501120  0.86357425  0.12971804    -0.77100
O669        O  0.56395904  0.95696191  0.16027187    -0.77800
C670        C  0.70309531  0.85098837  0.15502670     0.97400
O671        O  0.62020466  0.81584790  0.17531006    -0.75800
O672        O  0.70990835  0.93930547  0.21996873    -0.81000
C673        C  0.62796256  0.95677838  0.27270710     1.00100
C674        C  0.70390917  0.98136328  0.22213626     1.06000
O675        O  0.60476373  0.96745856  0.24187613    -0.76600
C676        C  0.62411216  0.80924728  0.21314180     1.04300
Fe677      Fe  0.63428470  0.14719467  0.39135180     1.65800
Fe678      Fe  0.68509170  0.12415873  0.48137087     1.73200
Fe679      Fe  0.62287138  0.04669523  0.43637090     1.54400
O680        O  0.57074894  0.07168679  0.40895180    -0.80400
O681        O  0.71626853  0.06918296  0.47366574    -0.78700
O682        O  0.57780742  0.14507749  0.39522487    -0.82900
O683        O  0.62617765  0.09495785  0.34859681    -0.77700
O684        O  0.60829081  0.05615834  0.49164232    -0.79500
O685        O  0.71769944  0.15993250  0.44640235    -0.82200
C686        C  0.62952533  0.05190732  0.34955570     0.98500
C687        C  0.55737932  0.11019507  0.39669189     1.06000
O688        O  0.64683966  0.10605519  0.43649752    -1.11200
O689        O  0.65553617  0.18048897  0.49159352    -0.73700
O690        O  0.63942361  0.20496150  0.42883033    -0.77100
O691        O  0.63563854  0.02986736  0.38194734    -0.77800
C692        C  0.64349644  0.21119445  0.46667824     0.97400
O693        O  0.69014268  0.14986327  0.38352049    -0.75800
O694        O  0.66016047  0.08842185  0.02346263    -0.81000
C695        C  0.70611124  0.02820849  0.47393488     1.00100
C696        C  0.63107430  0.06408179  0.02323918     1.06000
O697        O  0.67228223  0.01524949  0.46327491    -0.76600
C698        C  0.71928589  0.15747475  0.40928766     1.04300
Fe699      Fe  0.88173858  0.12791485  0.36191552     1.65800
Fe700      Fe  0.82795917  0.11220989  0.27235493     1.73200
Fe701      Fe  0.88310921  0.02673894  0.31430568     1.53600
O702        O  0.93778597  0.04494567  0.34016005    -0.80400
O703        O  0.79182440  0.06242733  0.28063911    -0.78700
O704        O  0.93746597  0.11818729  0.35748222    -0.82900
O705        O  0.88537750  0.07479525  0.40370073    -0.77700
O706        O  0.89697326  0.03440068  0.25857965    -0.79500
O707        O  0.80035696  0.15331125  0.30843355    -0.82200
C708        C  0.87858305  0.03233282  0.40198745     0.98500
C709        C  0.95465585  0.08120382  0.35359289     1.06000
O710        O  0.86489316  0.08884037  0.31614412    -1.11200
O711        O  0.86296241  0.16322713  0.26208279    -0.73700
O712        O  0.88143009  0.18602657  0.32504575    -0.77100
O713        O  0.87067434  0.01120538  0.36921929    -0.77800
C714        C  0.87744023  0.19260480  0.28720112     0.97400
O715        O  0.82675443  0.13826383  0.37078106    -0.75800
O716        O  0.84715597  0.07294757  0.22887401    -0.81000
C717        C  0.79784959  0.02038215  0.27841609     1.00100
C718        C  0.87373535  0.04502960  0.22776389     1.06000
O719        O  0.83027839  0.00253180  0.28810902    -0.76600
C720        C  0.79865044  0.15083169  0.34549261     1.04300
C721        C  0.76184052  0.16040718  0.35826572    -0.15100
C722        C  0.75693700  0.16082358  0.39683821    -0.30300
H723        H  0.73738093  0.16298324  0.33489023     0.13900
H724        H  0.78143178  0.15915256  0.42024698     0.14500
C725        C  0.51651000  0.11446529  0.38265246    -0.15100
C726        C  0.99582673  0.07896826  0.36657442    -0.30300
H727        H  0.50361440  0.14760456  0.38384328     0.13900
H728        H  0.00943816  0.04648250  0.36397774     0.14500
C729        C  0.76625280  0.99178991  0.26152165    -0.15100
C730        C  0.73551487  0.00994218  0.23903182    -0.30300
H731        H  0.76904614  0.95535553  0.26571614     0.13900
H732        H  0.73272789  0.04637635  0.23483347     0.14500
C733        C  0.62551398  0.02634635  0.31156607    -0.15100
C734        C  0.62673566  0.98059347  0.31053835    -0.30300
H735        H  0.62202296  0.04545262  0.28378368     0.13900
H736        H  0.63244315  0.96122153  0.33811606     0.14500
C737        C  0.62144195  0.99551995  0.06089090    -0.15100
C738        C  0.62664354  0.04086891  0.06053692    -0.30300
H739        H  0.61672548  0.97687974  0.03284475     0.13900
H740        H  0.63363982  0.05946712  0.08842763     0.14500
C741        C  0.73449389  0.99471029  0.48915064    -0.15100
C742        C  0.76700432  0.00715397  0.01139644    -0.30300
H743        H  0.72763290  0.95910991  0.48391657     0.13900
H744        H  0.77384851  0.04275988  0.01662002     0.14500
C745        C  0.87485779  0.96103970  0.43989522    -0.15100
C746        C  0.88029334  0.00635358  0.43956997    -0.30300
H747        H  0.86772595  0.94249823  0.41199022     0.13900
H748        H  0.88513633  0.02496409  0.46762835     0.14500
C749        C  0.87496827  0.02123270  0.18992760    -0.15100
C750        C  0.87629745  0.97548556  0.18889553    -0.30300
H751        H  0.86915778  0.04059789  0.16235220     0.13900
H752        H  0.87989511  0.95637191  0.21667712     0.14500
C753        C  0.73992957  0.84144781  0.14228523    -0.15100
C754        C  0.74484154  0.84101095  0.10371530    -0.30300
H755        H  0.76438524  0.83890821  0.16566886     0.13900
H756        H  0.72034383  0.84264307  0.08030745     0.14500
C757        C  0.98521685  0.88755122  0.11760583    -0.15100
C758        C  0.50590178  0.92301118  0.13373863    -0.30300
H759        H  0.99811184  0.85441886  0.11636682     0.13900
H760        H  0.49229148  0.95548526  0.13639450     0.14500
C761        C  0.63386166  0.25582063  0.48219279    -0.15100
C762        C  0.63877542  0.26529097  0.02189039    -0.30300
H763        H  0.62201690  0.28117286  0.46047198     0.13900
H764        H  0.65070126  0.24000607  0.04363233     0.14500
C765        C  0.88387862  0.24605907  0.23215382    -0.15100
C766        C  0.88899580  0.23646969  0.27177869    -0.30300
H767        H  0.87198753  0.22067404  0.21048218     0.13900
H768        H  0.90098036  0.26178523  0.29346859     0.14500
C769        C  0.76615636  0.38733995  0.13234979    -0.15100
C770        C  0.74550002  0.42285791  0.11629799    -0.30300
H771        H  0.75325316  0.35420530  0.13354034     0.13900
H772        H  0.75913150  0.45532968  0.11369701     0.14500
C773        C  0.00661596  0.34122411  0.14666914    -0.15100
C774        C  0.51150518  0.34163111  0.10805368    -0.30300
H775        H  0.03111002  0.34292227  0.17007811     0.13900
H776        H  0.48704531  0.33904707  0.08467880     0.14500
C777        C  0.86223268  0.73651971  0.47824024    -0.15100
C778        C  0.86756973  0.74607008  0.01807201    -0.30300
H779        H  0.85023417  0.76182720  0.45655600     0.13900
H780        H  0.87947209  0.72069213  0.03973913     0.14500
C781        C  0.87099069  0.50630410  0.31049318    -0.15100
C782        C  0.87649390  0.46100319  0.31017590    -0.30300
H783        H  0.86611533  0.52490000  0.28243252     0.13900
H784        H  0.88365851  0.44248300  0.33808329     0.14500
C785        C  0.87653905  0.52121113  0.06020903    -0.15100
C786        C  0.87522740  0.47545988  0.06125625    -0.30300
H787        H  0.88227364  0.54059715  0.08778205     0.13900
H788        H  0.87171545  0.45632873  0.03348222     0.14500
C789        C  0.98481272  0.49170089  0.48865381    -0.15100
C790        C  0.51606648  0.51013064  0.01102581    -0.30300
H791        H  0.98201960  0.45526876  0.48443425     0.13900
H792        H  0.51886566  0.54656396  0.01523459     0.14500
C793        C  0.61731255  0.75582318  0.26808986    -0.15100
C794        C  0.61238903  0.76542877  0.22848091    -0.30300
H795        H  0.62918134  0.78116197  0.28981823     0.13900
H796        H  0.60042545  0.74015720  0.20673708     0.14500
C797        C  0.62559612  0.52620015  0.43859560    -0.15100
C798        C  0.62434498  0.48044726  0.43964922    -0.30300
H799        H  0.62907476  0.54532720  0.46637127     0.13900
H800        H  0.61864373  0.46105295  0.41207844     0.14500
C801        C  0.62983550  0.49572809  0.18927329    -0.15100
C802        C  0.62426176  0.54101519  0.18960772    -0.30300
H803        H  0.63475195  0.47713285  0.21733355     0.13900
H804        H  0.61704411  0.55953323  0.16170528     0.14500
C805        C  0.73467120  0.61439700  0.36747869    -0.15100
C806        C  0.75535417  0.57888602  0.38348803    -0.30300
H807        H  0.74755179  0.64755005  0.36632610     0.13900
H808        H  0.74174945  0.54638946  0.38605202     0.14500
C809        C  0.98931675  0.66032436  0.39186412    -0.15100
C810        C  0.49423781  0.66068560  0.35325032    -0.30300
H811        H  0.01376851  0.66289977  0.41525054     0.13900
H812        H  0.46975465  0.65900298  0.32982736     0.14500
C813        C  0.51677833  0.49462471  0.26091607    -0.15100
C814        C  0.98391786  0.50743434  0.23890593    -0.30300
H815        H  0.52361396  0.45902980  0.26622269     0.13900
H816        H  0.97707772  0.54302617  0.23359078     0.14500
Fe817      Fe  0.61718066  0.64701869  0.85879592     1.65800
Fe818      Fe  0.56630555  0.62405457  0.76879974     1.73200
Fe819      Fe  0.62850833  0.54653075  0.81372345     1.54400
O820        O  0.68067290  0.57146371  0.84118319    -0.80400
O821        O  0.53508185  0.56908612  0.77643730    -0.78700
O822        O  0.67363390  0.64487467  0.85484548    -0.82900
O823        O  0.62529975  0.59473487  0.90150428    -0.77700
O824        O  0.64309781  0.55611827  0.75848246    -0.79500
O825        O  0.53375106  0.65983306  0.80381952    -0.82200
C826        C  0.62193145  0.55168263  0.90054316     0.98500
C827        C  0.69405886  0.60998996  0.85339523     1.06000
O828        O  0.60455825  0.60589491  0.81365012    -1.11200
O829        O  0.59589781  0.68034947  0.75858660    -0.73700
O830        O  0.61205506  0.70481567  0.82134622    -0.77100
O831        O  0.61574667  0.52964184  0.86814476    -0.77800
C832        C  0.60796593  0.71105060  0.78349651     0.97400
O833        O  0.56133743  0.64973816  0.86668872    -0.75800
O834        O  0.59082869  0.58851479  0.72673095    -0.81000
C835        C  0.54522366  0.52810957  0.77608373     1.00100
C836        C  0.61989140  0.56414574  0.72690778     1.06000
O837        O  0.57905546  0.51513517  0.78674410    -0.76600
C838        C  0.53218962  0.65739169  0.84093962     1.04300
Fe839      Fe  0.86972599  0.62802533  0.88827393     1.65800
Fe840      Fe  0.92352049  0.61230209  0.97782760     1.73200
Fe841      Fe  0.86843746  0.52682074  0.93580665     1.54400
O842        O  0.81374719  0.54498904  0.90996013    -0.80400
O843        O  0.95970420  0.56259099  0.96949568    -0.78700
O844        O  0.81398885  0.61825428  0.89270446    -0.82900
O845        O  0.86605577  0.57495774  0.84644595    -0.77700
O846        O  0.85456781  0.53438015  0.99154561    -0.79500
O847        O  0.95107472  0.65348295  0.94177281    -0.82200
C848        C  0.87289062  0.53251020  0.84813251     0.98500
C849        C  0.79683584  0.58122689  0.89654697     1.06000
O850        O  0.88659665  0.58893807  0.93402278    -1.11200
O851        O  0.88846479  0.66324654  0.98812598    -0.73700
O852        O  0.87005687  0.68610264  0.92517427    -0.77100
O853        O  0.88089512  0.51138777  0.88088630    -0.77800
C854        C  0.87401576  0.69264459  0.96301973     0.97400
O855        O  0.92471592  0.63836471  0.87942383    -0.75800
O856        O  0.90382944  0.57299032  0.52120050    -0.81000
C857        C  0.95370564  0.52053732  0.97167809     1.00100
C858        C  0.87726672  0.54503968  0.52228171     1.06000
O859        O  0.92128688  0.50266164  0.96197678    -0.76600
C860        C  0.95281278  0.65094160  0.90472348     1.04300
Fe861      Fe  0.88358079  0.35483723  0.64116020     1.65800
Fe862      Fe  0.93444976  0.37797500  0.73111712     1.73200
Fe863      Fe  0.87224271  0.45542712  0.68608000     1.54400
O864        O  0.88501295  0.47218365  0.63164077    -0.80400
O865        O  0.90989299  0.41357451  0.77312573    -0.78700
O866        O  0.87545199  0.40703723  0.59836792    -0.82900
O867        O  0.82712553  0.35700337  0.64510821    -0.77700
O868        O  0.92167994  0.48688531  0.71300662    -0.79500
O869        O  0.90490928  0.32166449  0.74142618    -0.82200
C870        C  0.80670694  0.39190391  0.64651500     0.98500
C871        C  0.87883220  0.45008847  0.59927271     1.06000
O872        O  0.89619003  0.39604717  0.68624729    -1.11200
O873        O  0.96702614  0.34215445  0.69614805    -0.73700
O874        O  0.93942528  0.35211037  0.63326613    -0.77100
O875        O  0.82009586  0.43044534  0.65866930    -0.77800
C876        C  0.96858154  0.34452603  0.65902295     0.97400
O877        O  0.88873459  0.29710162  0.67869958    -0.75800
O878        O  0.96564625  0.43293760  0.72338858    -0.81000
C879        C  0.88083160  0.43795624  0.77291705     1.00100
C880        C  0.95550996  0.47391888  0.72368133     1.06000
O881        O  0.85764335  0.44597839  0.74132924    -0.76600
C882        C  0.89288223  0.29090453  0.71655940     1.04300
Fe883      Fe  0.63105340  0.37395044  0.61173516     1.65800
Fe884      Fe  0.57734307  0.38946662  0.52209859     1.73200
Fe885      Fe  0.63236722  0.47505834  0.56404485     1.54400
O886        O  0.61986816  0.49062827  0.61893233    -0.80400
O887        O  0.59704965  0.42868961  0.97858827    -0.78700
O888        O  0.63464429  0.42710250  0.65346236    -0.82900
O889        O  0.68678746  0.38372347  0.60734304    -0.77700
O890        O  0.57953645  0.49916301  0.53779166    -0.79500
O891        O  0.61244359  0.33849055  0.51196324    -0.82200
C892        C  0.70394496  0.42072757  0.60343834     0.98500
C893        C  0.62782337  0.46955080  0.65171623     1.06000
O894        O  0.61420755  0.41294267  0.56591035    -1.11200
O895        O  0.54972494  0.34840353  0.55819347    -0.73700
O896        O  0.57605742  0.36358832  0.62054146    -0.77100
O897        O  0.68704477  0.45694595  0.58996223    -0.77800
C898        C  0.54797473  0.35097523  0.59524054     0.97400
O899        O  0.63082840  0.31579696  0.57496314    -0.75800
O900        O  0.54112971  0.43921783  0.53024673    -0.81000
C901        C  0.62359910  0.45665244  0.97748599     1.00100
C902        C  0.54712977  0.48127183  0.52805122     1.06000
O903        O  0.64628583  0.46737299  0.50833523    -0.76600
C904        C  0.62695296  0.30919049  0.53713501     1.04300
Fe905      Fe  0.86740215  0.85476584  0.60889698     1.65800
Fe906      Fe  0.81660454  0.87798557  0.51892054     1.73200
Fe907      Fe  0.87889949  0.95531692  0.56401976     1.54400
O908        O  0.86605524  0.97212602  0.61842690    -0.80400
O909        O  0.84101958  0.91341710  0.97702963    -0.78700
O910        O  0.87553667  0.90698994  0.65171147    -0.82900
O911        O  0.92386643  0.85682415  0.60498896    -0.77700
O912        O  0.82956269  0.98687023  0.53703670    -0.79500
O913        O  0.84602718  0.82158734  0.50860743    -0.82200
C914        C  0.94431866  0.89169800  0.60362036     0.98500
C915        C  0.87215598  0.95004696  0.65080141     1.06000
O916        O  0.85487161  0.89597935  0.56381352    -1.11200
O917        O  0.78393107  0.84226742  0.55385116    -0.73700
O918        O  0.81155334  0.85211084  0.61674608    -0.77100
O919        O  0.93097379  0.93025719  0.59148728    -0.77800
C920        C  0.78238906  0.84459002  0.59098263     0.97400
O921        O  0.86220234  0.79703434  0.57133474    -0.75800
O922        O  0.78551735  0.93301864  0.52667306    -0.81000
C923        C  0.87005199  0.93785540  0.97720839     1.00100
C924        C  0.79572188  0.97396969  0.52636284     1.06000
O925        O  0.89355409  0.94580700  0.50879614    -0.76600
C926        C  0.85801733  0.79082039  0.53347275     1.04300
Fe927      Fe  0.61997564  0.87394955  0.63838246     1.65800
Fe928      Fe  0.67367538  0.88957118  0.72800995     1.73200
Fe929      Fe  0.61851496  0.97505207  0.68609693     1.54400
O930        O  0.63105129  0.99068591  0.63122484    -0.80400
O931        O  0.65436277  0.92870209  0.77152019    -0.78700
O932        O  0.61635916  0.92714541  0.59666560    -0.82900
O933        O  0.56423567  0.88360402  0.64279246    -0.77700
O934        O  0.67127413  0.99928997  0.71241903    -0.79500
O935        O  0.63871825  0.83845618  0.73815532    -0.82200
C936        C  0.54703328  0.92057417  0.64669394     0.98500
C937        C  0.62318537  0.96960182  0.59842708     1.06000
O938        O  0.63676668  0.91296568  0.68421450    -1.11200
O939        O  0.70138315  0.84862715  0.69190144    -0.73700
O940        O  0.67496664  0.86365997  0.62955078    -0.77100
O941        O  0.56388520  0.95683215  0.66014306    -0.77800
C942        C  0.70307772  0.85111301  0.65483795     0.97400
O943        O  0.62028533  0.81576562  0.67515562    -0.75800
O944        O  0.70976752  0.93943765  0.71985236    -0.81000
C945        C  0.62777037  0.95660806  0.77262962     1.00100
C946        C  0.70370322  0.98146465  0.72213926     1.06000
O947        O  0.60457187  0.96728804  0.74179250    -0.76600
C948        C  0.62424792  0.80912524  0.71298799     1.04300
Fe949      Fe  0.63404826  0.14695343  0.89143225     1.65800
Fe950      Fe  0.68481603  0.12387855  0.98145703     1.73200
Fe951      Fe  0.62255684  0.04645798  0.93641043     1.54400
O952        O  0.57046173  0.07148768  0.90891364    -0.80400
O953        O  0.71594828  0.06882852  0.97383411    -0.78700
O954        O  0.57758340  0.14489627  0.89532530    -0.82900
O955        O  0.62592561  0.09468812  0.84867912    -0.77700
O956        O  0.60790950  0.05603604  0.99163301    -0.79500
O957        O  0.71749274  0.15955105  0.94650424    -0.82200
C958        C  0.62926917  0.05163086  0.84961506     0.98500
C959        C  0.55712386  0.11003612  0.89672740     1.06000
O960        O  0.64657995  0.10579552  0.93655975    -1.11200
O961        O  0.65533412  0.18027456  0.99166577    -0.73700
O962        O  0.63921125  0.20473446  0.92890706    -0.77100
O963        O  0.63537476  0.02957293  0.88200244    -0.77800
C964        C  0.64332589  0.21099088  0.96675516     0.97400
O965        O  0.68990321  0.14962071  0.88360662    -0.75800
O966        O  0.66053745  0.08858255  0.52342268    -0.81000
C967        C  0.70575739  0.02786882  0.97414933     1.00100
C968        C  0.63148998  0.06417028  0.52323049     1.06000
O969        O  0.67192281  0.01494753  0.96342829    -0.76600
C970        C  0.71905091  0.15720206  0.90937801     1.04300
Fe971      Fe  0.88147971  0.12800965  0.86193265     1.65800
Fe972      Fe  0.82767420  0.11228634  0.77238364     1.73200
Fe973      Fe  0.88281935  0.02682544  0.81433640     1.53600
O974        O  0.93748364  0.04502310  0.84020894    -0.80400
O975        O  0.79156596  0.06250326  0.78071254    -0.78700
O976        O  0.93720855  0.11828803  0.85746969    -0.82900
O977        O  0.88514073  0.07488169  0.90373015    -0.77700
O978        O  0.89669700  0.03444390  0.75860125    -0.79500
O979        O  0.80007213  0.15336501  0.80848166    -0.82200
C980        C  0.87827420  0.03243331  0.90201317     0.98500
C981        C  0.95437572  0.08127677  0.85361190     1.06000
O982        O  0.86462730  0.08893851  0.81615888    -1.11200
O983        O  0.86263170  0.16334397  0.76209313    -0.73700
O984        O  0.88111735  0.18613778  0.82505725    -0.77100
O985        O  0.87032863  0.01132675  0.86923891    -0.77800
C986        C  0.87708099  0.19273914  0.78721082     0.97400
O987        O  0.82650363  0.13832015  0.87082001    -0.75800
O988        O  0.84689036  0.07301377  0.72888993    -0.81000
C989        C  0.79759086  0.02046516  0.77846369     1.00100
C990        C  0.87346856  0.04508365  0.72777615     1.06000
O991        O  0.83001654  0.00261450  0.78812682    -0.76600
C992        C  0.79838134  0.15085792  0.84554329     1.04300
C993        C  0.76157259  0.16035838  0.85833914    -0.15100
C994        C  0.75668620  0.16064545  0.89691600    -0.30300
H995        H  0.73710518  0.16296312  0.83497637     0.13900
H996        H  0.78118960  0.15893957  0.92031238     0.14500
C997        C  0.51625934  0.11440037  0.88270461    -0.15100
C998        C  0.99554434  0.07898374  0.86658553    -0.30300
H999        H  0.50340439  0.14755351  0.88396943     0.13900
H1000       H  0.00912588  0.04648766  0.86394267     0.14500
C1001       C  0.76600441  0.99188606  0.76155871    -0.15100
C1002       C  0.73525278  0.01006037  0.73912246    -0.30300
H1003       H  0.76883015  0.95544320  0.76566940     0.13900
H1004       H  0.73242478  0.04650302  0.73501024     0.14500
C1005       C  0.62526937  0.02610455  0.81159536    -0.15100
C1006       C  0.62648546  0.98035072  0.81049670    -0.30300
H1007       H  0.62180492  0.04525361  0.78383669     0.13900
H1008       H  0.63216766  0.96093267  0.83805038     0.14500
C1009       C  0.62154537  0.99561549  0.56085947    -0.15100
C1010       C  0.62709885  0.04091291  0.56054537    -0.30300
H1011       H  0.61662040  0.97703329  0.53278812     0.13900
H1012       H  0.63432134  0.05941634  0.58845949     0.14500
C1013       C  0.73411796  0.99435597  0.98945658    -0.15100
C1014       C  0.76737487  0.00749327  0.51109780    -0.30300
H1015       H  0.72726846  0.95875164  0.98423214     0.13900
H1016       H  0.77424075  0.04309214  0.51633189     0.14500
C1017       C  0.87440464  0.96113638  0.93989921    -0.15100
C1018       C  0.87995969  0.00643522  0.93959214    -0.30300
H1019       H  0.86715769  0.94263969  0.91198475     0.13900
H1020       H  0.88492019  0.02501434  0.96766372     0.14500
C1021       C  0.87473699  0.02131632  0.68991306    -0.15100
C1022       C  0.87610623  0.97556535  0.68882773    -0.30300
H1023       H  0.86895936  0.04071120  0.66235246     0.13900
H1024       H  0.87966122  0.95642068  0.71659132     0.14500
C1025       C  0.73988236  0.84156998  0.64204545    -0.15100
C1026       C  0.74475802  0.84119244  0.60346398    -0.30300
H1027       H  0.76435358  0.83899695  0.66540701     0.13900
H1028       H  0.72024953  0.84287137  0.58007271     0.14500
C1029       C  0.98518371  0.88735808  0.61762410    -0.15100
C1030       C  0.50586843  0.92280989  0.63372355    -0.30300
H1031       H  0.99805678  0.85421456  0.61636875     0.13900
H1032       H  0.49226034  0.95528796  0.63636929     0.14500
C1033       C  0.63380094  0.25566387  0.98227928    -0.15100
C1034       C  0.63871132  0.26538574  0.52180464    -0.30300
H1035       H  0.62196174  0.28101956  0.96056022     0.13900
H1036       H  0.65064743  0.24010401  0.54354502     0.14500
C1037       C  0.88340382  0.24624603  0.73216014    -0.15100
C1038       C  0.88856750  0.23663890  0.77178465    -0.30300
H1039       H  0.87148296  0.22087127  0.71049328     0.13900
H1040       H  0.90057723  0.26194571  0.79347025     0.14500
C1041       C  0.76582917  0.38759076  0.63253386    -0.15100
C1042       C  0.74511289  0.42304010  0.61643489    -0.30300
H1043       H  0.75296677  0.35443553  0.63374834     0.13900
H1044       H  0.75869283  0.45553963  0.61381140     0.14500
C1045       C  0.00622158  0.34110633  0.64655885    -0.15100
C1046       C  0.51114509  0.34145909  0.60799348    -0.30300
H1047       H  0.03071790  0.34280057  0.66996541     0.13900
H1048       H  0.48669188  0.33885082  0.58461260     0.14500
C1049       C  0.86245464  0.73649175  0.97844998    -0.15100
C1050       C  0.86742222  0.74613725  0.51786533    -0.30300
H1051       H  0.85046425  0.76180405  0.95676633     0.13900
H1052       H  0.87933332  0.72076027  0.53952848     0.14500
C1053       C  0.87110071  0.50653539  0.81054121    -0.15100
C1054       C  0.87644224  0.46120874  0.81021077    -0.30300
H1055       H  0.86625331  0.52514413  0.78248675     0.13900
H1056       H  0.88356311  0.44266311  0.83810990     0.14500
C1057       C  0.87597663  0.52132094  0.56014073    -0.15100
C1058       C  0.87479135  0.47557062  0.56124394    -0.30300
H1059       H  0.88164587  0.54075907  0.58768899     0.13900
H1060       H  0.87132889  0.45640091  0.53349181     0.14500
C1061       C  0.98531296  0.49195885  0.98855031    -0.15100
C1062       C  0.51553652  0.50984260  0.51113904    -0.30300
H1063       H  0.98251851  0.45552363  0.98435362     0.13900
H1064       H  0.51832805  0.54627875  0.51533323     0.14500
C1065       C  0.61757883  0.75567853  0.76795949    -0.15100
C1066       C  0.61262482  0.76526125  0.72834107    -0.30300
H1067       H  0.62944776  0.78103773  0.78966837     0.13900
H1068       H  0.60066804  0.73997038  0.70661286     0.14500
C1069       C  0.62599886  0.52614566  0.93854627    -0.15100
C1070       C  0.62485432  0.48039168  0.93962442    -0.30300
H1071       H  0.62945708  0.54528822  0.96631348     0.13900
H1072       H  0.61918902  0.46097112  0.91206574     0.14500
C1073       C  0.62958553  0.49556422  0.68928400    -0.15100
C1074       C  0.62425390  0.54089145  0.68960269    -0.30300
H1075       H  0.63442497  0.47697197  0.71734791     0.13900
H1076       H  0.61713389  0.55942920  0.66169932     0.14500
C1077       C  0.73493883  0.61431816  0.86739033    -0.15100
C1078       C  0.75566214  0.57889918  0.88354404    -0.30300
H1079       H  0.74779602  0.64747222  0.86614623     0.13900
H1080       H  0.74208608  0.54640157  0.88618907     0.14500
C1081       C  0.98964219  0.66044771  0.89197172    -0.15100
C1082       C  0.49455138  0.66081503  0.85340345    -0.30300
H1083       H  0.01409820  0.66302232  0.91535258     0.13900
H1084       H  0.47005385  0.65915349  0.82999689     0.14500
C1085       C  0.51681587  0.49463207  0.76079552    -0.15100
C1086       C  0.98392491  0.50740524  0.73893356    -0.30300
H1087       H  0.52366806  0.45902180  0.76596206     0.13900
H1088       H  0.97708038  0.54301573  0.73375432     0.14500
loop_ 
_geom_bond_atom_site_label_1 
_geom_bond_atom_site_label_2 
_geom_bond_distance 
_geom_bond_site_symmetry_2 
_ccdc_geom_bond_type 
Fe1          O17   2.077       .  S
Fe1           O7   2.103       .  S
Fe1          O14   2.116       .  S
Fe1           O6   2.064       .  S
Fe1          O12   1.947       .  S
Fe2           O5   2.015       .  S
Fe2           O9   2.089       .  S
Fe2          O13   2.035       .  S
Fe2          O18   2.083       .  S
Fe2          O12   1.951       .  S
Fe3          O21   2.081       .  S
Fe3           O8   2.048       .  S
Fe3          O15   2.037       .  S
Fe3           O4   2.088       .  S
Fe3          O12   1.953       .  S
O4           C11   1.277       .  A
O5           C19   1.264       .  A
O6           C11   1.272       .  A
O7           C10   1.276       .  A
O8           C20   1.267       .  A
O9           C22   1.271       .  A
C10          O15   1.264       .  A
C10         C253   1.479       .  S
C11         C261   1.477       .  S
O13          C16   1.265       .  A
O14          C16   1.281       .  A
C16         C249   1.481       .  S
O17          C22   1.271       .  A
O18          C20   1.271       .  A
C19          O21   1.273       .  A
C19         C269   1.454       .  S
C20         C258   1.471       .  S
C22         C266   1.491   1_455  S
Fe23         O39   2.077       .  S
Fe23         O29   2.102       .  S
Fe23         O36   2.121       .  S
Fe23         O28   2.061       .  S
Fe23         O34   1.948       .  S
Fe24         O27   2.014       .  S
Fe24         O31   2.088       .  S
Fe24         O35   2.031       .  S
Fe24        O312   2.082       .  S
Fe24         O34   1.949       .  S
Fe25         O43   2.090       .  S
Fe25         O30   2.046       .  S
Fe25         O37   2.039       .  S
Fe25         O26   2.091       .  S
Fe25         O34   1.951       .  S
O26          C33   1.277       .  A
O27          C41   1.264       .  A
O28          C33   1.273       .  A
O29          C32   1.276       .  A
O30         C314   1.266       .  A
O31          C44   1.270       .  A
C32          O37   1.265       .  A
C32         C237   1.480       .  S
C33         C262   1.479       .  S
O35          C38   1.265       .  A
O36          C38   1.282       .  A
C38         C233   1.481       .  S
O39          C44   1.270       .  A
O40        Fe296   2.082   1_554  S
O40          C42   1.269       .  A
C41          O43   1.275       .  A
C41         C245   1.457       .  S
C42         O302   1.266   1_554  A
C42         C241   1.470       .  S
C44         C265   1.490       .  S
Fe45         O61   2.116       .  S
Fe45         O51   2.064       .  S
Fe45         O58   2.077       .  S
Fe45         O50   2.103       .  S
Fe45         O56   1.947       .  S
Fe46         O49   2.083       .  S
Fe46         O53   2.035       .  S
Fe46         O57   2.089       .  S
Fe46         O62   2.015       .  S
Fe46         O56   1.951       .  S
Fe47         O65   2.048       .  S
Fe47         O52   2.081       .  S
Fe47         O59   2.088       .  S
Fe47         O48   2.036       .  S
Fe47         O56   1.953       .  S
O48          C55   1.264       .  A
O49          C63   1.271       .  A
O50          C55   1.276       .  A
O51          C54   1.272       .  A
O52          C64   1.273       .  A
O53          C66   1.265       .  A
C54          O59   1.276       .  A
C54         C225   1.477       .  S
C55         C242   1.479       .  S
O57          C60   1.271       .  A
O58          C60   1.271       .  A
C60         C229   1.491       .  S
O61          C66   1.281       .  A
O62          C64   1.264       .  A
C63          O65   1.267       .  A
C63         C238   1.470       .  S
C64         C270   1.454       .  S
C66         C221   1.481       .  S
Fe67         O83   2.121       .  S
Fe67         O73   2.060       .  S
Fe67         O80   2.077       .  S
Fe67         O72   2.102       .  S
Fe67         O78   1.948       .  S
Fe68         O75   2.032       .  S
Fe68         O79   2.089       .  S
Fe68         O84   2.014       .  S
Fe68        O343   2.082   1_554  S
Fe68         O78   1.949       .  S
Fe69         O87   2.046       .  S
Fe69         O74   2.090       .  S
Fe69         O81   2.091       .  S
Fe69         O70   2.039       .  S
Fe69         O78   1.951       .  S
O70          C77   1.265       .  A
O71        Fe340   2.082       .  S
O71          C85   1.269       .  A
O72          C77   1.276       .  A
O73          C76   1.273       .  A
O74          C86   1.275       .  A
O75          C88   1.265       .  A
C76          O81   1.277       .  A
C76         C226   1.479       .  S
C77         C257   1.480       .  S
O79          C82   1.270       .  A
O80          C82   1.270       .  A
C82         C230   1.490       .  S
O83          C88   1.282       .  A
O84          C86   1.264       .  A
C85         O359   1.266       .  A
C85         C254   1.470       .  S
C86         C246   1.457       .  S
O87         C357   1.266   1_554  A
C88         C218   1.481       .  S
Fe89        O105   2.116       .  S
Fe89         O95   2.064       .  S
Fe89        O102   2.078       .  S
Fe89         O94   2.103       .  S
Fe89        O100   1.947       .  S
Fe90         O97   2.035       .  S
Fe90        O101   2.090       .  S
Fe90        O106   2.015       .  S
Fe90        O365   2.083   1_554  S
Fe90        O100   1.951       .  S
Fe91        O109   2.048       .  S
Fe91         O96   2.082       .  S
Fe91        O103   2.090       .  S
Fe91         O92   2.036       .  S
Fe91        O100   1.953       .  S
O92          C99   1.264       .  A
O93        Fe362   2.083       .  S
O93         C107   1.271       .  A
O94          C99   1.276       .  A
O95          C98   1.272       .  A
O96         C108   1.273       .  A
O97         C110   1.265       .  A
C98         O103   1.277       .  A
C98         C213   1.478       .  S
C99         C206   1.479       .  S
O101        C104   1.271       .  A
O102        C104   1.271       .  A
C104        C210   1.491       .  S
O105        C110   1.281       .  A
O106        C108   1.264       .  A
C107        O381   1.267       .  A
C107        C201   1.470       .  S
C108        C198   1.455   1_565  S
O109        C379   1.267   1_554  A
C110        C234   1.480       .  S
Fe111       O127   2.120       .  S
Fe111       O117   2.061       .  S
Fe111       O124   2.078       .  S
Fe111       O116   2.102       .  S
Fe111       O122   1.948       .  S
Fe112       O115   2.082       .  S
Fe112       O119   2.032       .  S
Fe112       O123   2.089       .  S
Fe112       O128   2.014       .  S
Fe112       O122   1.949       .  S
Fe113       O131   2.046       .  S
Fe113       O118   2.090       .  S
Fe113       O125   2.092       .  S
Fe113       O114   2.039       .  S
Fe113       O122   1.951       .  S
O114        C121   1.265       .  A
O115        C129   1.269       .  A
O116        C121   1.276       .  A
O117        C120   1.273       .  A
O118        C130   1.275       .  A
O119        C132   1.266       .  A
C120        O125   1.277       .  A
C120        C214   1.479       .  S
C121        C193   1.479       .  S
O123        C126   1.270       .  A
O124        C126   1.270       .  A
C126        C209   1.491       .  S
O127        C132   1.282       .  A
O128        C130   1.264       .  A
C129        O131   1.266       .  A
C129        C190   1.470       .  S
C130        C186   1.457   1_565  S
C132        C250   1.481       .  S
Fe133       O149   2.077       .  S
Fe133       O139   2.103       .  S
Fe133       O146   2.115       .  S
Fe133       O138   2.064       .  S
Fe133       O144   1.947       .  S
Fe134       O137   2.015       .  S
Fe134       O141   2.090       .  S
Fe134       O145   2.035       .  S
Fe134       O422   2.083       .  S
Fe134       O144   1.951       .  S
Fe135       O153   2.081       .  S
Fe135       O140   2.048       .  S
Fe135       O147   2.036       .  S
Fe135       O136   2.089       .  S
Fe135       O144   1.953       .  S
O136        C143   1.277       .  A
O137        C151   1.264       .  A
O138        C143   1.272       .  A
O139        C142   1.276       .  A
O140        C424   1.267       .  A
O141        C154   1.271       .  A
C142        O147   1.264       .  A
C142        C189   1.479       .  S
C143        C181   1.478       .  S
O145        C148   1.266       .  A
O146        C148   1.280       .  A
C148        C217   1.480       .  S
O149        C154   1.271       .  A
O150       Fe406   2.082   1_554  S
O150        C152   1.271       .  A
C151        O153   1.273       .  A
C151        C197   1.455   1_545  S
C152        O412   1.267   1_554  A
C152        C194   1.470       .  S
C154        C178   1.491       .  S
Fe155       O171   2.078       .  S
Fe155       O161   2.102       .  S
Fe155       O168   2.121       .  S
Fe155       O160   2.061       .  S
Fe155       O166   1.948       .  S
Fe156       O159   2.014       .  S
Fe156       O163   2.089       .  S
Fe156       O167   2.032       .  S
Fe156       O172   2.082       .  S
Fe156       O166   1.949       .  S
Fe157       O175   2.090       .  S
Fe157       O162   2.046       .  S
Fe157       O169   2.039       .  S
Fe157       O158   2.091       .  S
Fe157       O166   1.951       .  S
O158        C165   1.277       .  A
O159        C173   1.264       .  A
O160        C165   1.273       .  A
O161        C164   1.276       .  A
O162        C174   1.266       .  A
O163        C176   1.270       .  A
C164        O169   1.265       .  A
C164        C202   1.480       .  S
C165        C182   1.479       .  S
O167        C170   1.266       .  A
O168        C170   1.282       .  A
C170        C222   1.481       .  S
O171        C176   1.270       .  A
O172        C174   1.269       .  A
C173        O175   1.275       .  A
C173        C185   1.457   1_545  S
C174        C205   1.470       .  S
C176        C177   1.491       .  S
C177        C178   1.349       .  D
C177        H179   1.087       .  S
C178        H180   1.087       .  S
C181        C726   1.347   1_455  D
C181        H183   1.086       .  S
C182        C725   1.347       .  D
C182        H184   1.087       .  S
C185        C186   1.348   1_565  D
C185        H187   1.087       .  S
C186        H188   1.087       .  S
C189        C190   1.351   1_545  D
C189        H191   1.087       .  S
C190        H192   1.086       .  S
C193        C194   1.351   1_565  D
C193        H195   1.087       .  S
C194        H196   1.086       .  S
C197        C470   1.345   1_565  D
C197        H199   1.087       .  S
C198        C469   1.346   1_544  D
C198        H200   1.087       .  S
C201        C202   1.352   1_565  D
C201        H203   1.086       .  S
C202        H204   1.087       .  S
C205        C206   1.351   1_545  D
C205        H207   1.086       .  S
C206        H208   1.087       .  S
C209        C210   1.349       .  D
C209        H211   1.087       .  S
C210        H212   1.087       .  S
C213        C758   1.347       .  D
C213        H215   1.086       .  S
C214        C757   1.347   1_455  D
C214        H216   1.087   1_455  S
C217        C490   1.355       .  D
C217        H219   1.086       .  S
C218        C489   1.355   1_554  D
C218        H220   1.086       .  S
C221        C222   1.355       .  D
C221        H223   1.086       .  S
C222        H224   1.086       .  S
C225        C226   1.347       .  D
C225        H227   1.086       .  S
C226        H228   1.087       .  S
C229        C774   1.349       .  D
C229        H231   1.087       .  S
C230        C773   1.349       .  D
C230        H232   1.087   1_455  S
C233        C506   1.355       .  D
C233        H235   1.086       .  S
C234        C505   1.355   1_554  D
C234        H236   1.086       .  S
C237        C238   1.352       .  D
C237        H239   1.087       .  S
C238        H240   1.086       .  S
C241        C242   1.351       .  D
C241        H243   1.086       .  S
C242        H244   1.087       .  S
C245       C1062   1.348       .  D
C245        H247   1.087       .  S
C246       C1061   1.348   1_454  D
C246        H248   1.087       .  S
C249        C250   1.355       .  D
C249        H251   1.086       .  S
C250        H252   1.086       .  S
C253        C254   1.351       .  D
C253        H255   1.087       .  S
C254        H256   1.086       .  S
C257        C258   1.352       .  D
C257        H259   1.087       .  S
C258        H260   1.086       .  S
C261        C262   1.347       .  D
C261        H263   1.086       .  S
C262        H264   1.087       .  S
C265        C810   1.349       .  D
C265        H267   1.087       .  S
C266        C809   1.349       .  D
C266        H268   1.087       .  S
C269        C814   1.345   1_455  D
C269        H271   1.087       .  S
C270        C813   1.345       .  D
C270        H272   1.087       .  S
Fe273       O289   2.077       .  S
Fe273       O279   2.103       .  S
Fe273       O286   2.116       .  S
Fe273       O278   2.064       .  S
Fe273       O284   1.947       .  S
Fe274       O277   2.016       .  S
Fe274       O281   2.090       .  S
Fe274       O285   2.035       .  S
Fe274       O290   2.082       .  S
Fe274       O284   1.951       .  S
Fe275       O293   2.082       .  S
Fe275       O280   2.048       .  S
Fe275       O287   2.037       .  S
Fe275       O276   2.090       .  S
Fe275       O284   1.953       .  S
O276        C283   1.277       .  A
O277        C291   1.264       .  A
O278        C283   1.271       .  A
O279        C282   1.276       .  A
O280        C292   1.267       .  A
O281        C294   1.271       .  A
C282        O287   1.264       .  A
C282        C525   1.479       .  S
C283        C533   1.478       .  S
O285        C288   1.265       .  A
O286        C288   1.281       .  A
C288        C521   1.481       .  S
O289        C294   1.271       .  A
O290        C292   1.270       .  A
C291        O293   1.273       .  A
C291        C541   1.455       .  S
C292        C530   1.470       .  S
C294        C538   1.491   1_455  S
Fe295       O311   2.078       .  S
Fe295       O301   2.102       .  S
Fe295       O308   2.120       .  S
Fe295       O300   2.061       .  S
Fe295       O306   1.948       .  S
Fe296       O299   2.014       .  S
Fe296       O303   2.089       .  S
Fe296       O307   2.031       .  S
Fe296       O306   1.949       .  S
Fe297       O315   2.090       .  S
Fe297       O302   2.046       .  S
Fe297       O309   2.038       .  S
Fe297       O298   2.091       .  S
Fe297       O306   1.951       .  S
O298        C305   1.277       .  A
O299        C313   1.264       .  A
O300        C305   1.273       .  A
O301        C304   1.276       .  A
O303        C316   1.270       .  A
C304        O309   1.264       .  A
C304        C509   1.479       .  S
C305        C534   1.479       .  S
O307        C310   1.266       .  A
O308        C310   1.282       .  A
C310        C505   1.481       .  S
O311        C316   1.270       .  A
O312        C314   1.269       .  A
C313        O315   1.275       .  A
C313        C517   1.457       .  S
C314        C513   1.470       .  S
C316        C537   1.491       .  S
Fe317       O333   2.116       .  S
Fe317       O323   2.064       .  S
Fe317       O330   2.077       .  S
Fe317       O322   2.103       .  S
Fe317       O328   1.947       .  S
Fe318       O321   2.082       .  S
Fe318       O325   2.035       .  S
Fe318       O329   2.089       .  S
Fe318       O334   2.016       .  S
Fe318       O328   1.951       .  S
Fe319       O337   2.047       .  S
Fe319       O324   2.082       .  S
Fe319       O331   2.089       .  S
Fe319       O320   2.036       .  S
Fe319       O328   1.953       .  S
O320        C327   1.264       .  A
O321        C335   1.270       .  A
O322        C327   1.276       .  A
O323        C326   1.272       .  A
O324        C336   1.273       .  A
O325        C338   1.265       .  A
C326        O331   1.277       .  A
C326        C497   1.478       .  S
C327        C514   1.479       .  S
O329        C332   1.271       .  A
O330        C332   1.271       .  A
C332        C501   1.491       .  S
O333        C338   1.281       .  A
O334        C336   1.264       .  A
C335        O337   1.267       .  A
C335        C510   1.470       .  S
C336        C542   1.455       .  S
C338        C493   1.481       .  S
Fe339       O355   2.120       .  S
Fe339       O345   2.061       .  S
Fe339       O352   2.077       .  S
Fe339       O344   2.101       .  S
Fe339       O350   1.948       .  S
Fe340       O347   2.032       .  S
Fe340       O351   2.089       .  S
Fe340       O356   2.014       .  S
Fe340       O350   1.949       .  S
Fe341       O359   2.046       .  S
Fe341       O346   2.090       .  S
Fe341       O353   2.091       .  S
Fe341       O342   2.039       .  S
Fe341       O350   1.951       .  S
O342        C349   1.265       .  A
O343        C357   1.269       .  A
O344        C349   1.276       .  A
O345        C348   1.273       .  A
O346        C358   1.275       .  A
O347        C360   1.266       .  A
C348        O353   1.277       .  A
C348        C498   1.479       .  S
C349        C529   1.479       .  S
O351        C354   1.270       .  A
O352        C354   1.270       .  A
C354        C502   1.491       .  S
O355        C360   1.282       .  A
O356        C358   1.264       .  A
C357        C526   1.470       .  S
C358        C518   1.457       .  S
C360        C490   1.481       .  S
Fe361       O377   2.116       .  S
Fe361       O367   2.064       .  S
Fe361       O374   2.077       .  S
Fe361       O366   2.104       .  S
Fe361       O372   1.947       .  S
Fe362       O369   2.035       .  S
Fe362       O373   2.090       .  S
Fe362       O378   2.015       .  S
Fe362       O372   1.951       .  S
Fe363       O381   2.048       .  S
Fe363       O368   2.081       .  S
Fe363       O375   2.089       .  S
Fe363       O364   2.036       .  S
Fe363       O372   1.953       .  S
O364        C371   1.264       .  A
O365        C379   1.271       .  A
O366        C371   1.276       .  A
O367        C370   1.271       .  A
O368        C380   1.273       .  A
O369        C382   1.265       .  A
C370        O375   1.277       .  A
C370        C485   1.477       .  S
C371        C478   1.479       .  S
O373        C376   1.271       .  A
O374        C376   1.271       .  A
C376        C482   1.491       .  S
O377        C382   1.281       .  A
O378        C380   1.264       .  A
C379        C473   1.471       .  S
C380        C470   1.455   1_565  S
C382        C506   1.481       .  S
Fe383       O399   2.121       .  S
Fe383       O389   2.061       .  S
Fe383       O396   2.077       .  S
Fe383       O388   2.102       .  S
Fe383       O394   1.948       .  S
Fe384       O387   2.082       .  S
Fe384       O391   2.032       .  S
Fe384       O395   2.089       .  S
Fe384       O400   2.014       .  S
Fe384       O394   1.949       .  S
Fe385       O403   2.046       .  S
Fe385       O390   2.089       .  S
Fe385       O397   2.091       .  S
Fe385       O386   2.039       .  S
Fe385       O394   1.951       .  S
O386        C393   1.265       .  A
O387        C401   1.269       .  A
O388        C393   1.276       .  A
O389        C392   1.273       .  A
O390        C402   1.275       .  A
O391        C404   1.266       .  A
C392        O397   1.277       .  A
C392        C486   1.479       .  S
C393        C465   1.480       .  S
O395        C398   1.270       .  A
O396        C398   1.270       .  A
C398        C481   1.491       .  S
O399        C404   1.282       .  A
O400        C402   1.264       .  A
C401        O403   1.266       .  A
C401        C462   1.470       .  S
C402        C458   1.456   1_565  S
C404        C522   1.481       .  S
Fe405       O421   2.077       .  S
Fe405       O411   2.103       .  S
Fe405       O418   2.116       .  S
Fe405       O410   2.064       .  S
Fe405       O416   1.947       .  S
Fe406       O409   2.015       .  S
Fe406       O413   2.090       .  S
Fe406       O417   2.035       .  S
Fe406       O416   1.951       .  S
Fe407       O425   2.082       .  S
Fe407       O412   2.048       .  S
Fe407       O419   2.037       .  S
Fe407       O408   2.089       .  S
Fe407       O416   1.953       .  S
O408        C415   1.277       .  A
O409        C423   1.264       .  A
O410        C415   1.271       .  A
O411        C414   1.276       .  A
O413        C426   1.271       .  A
C414        O419   1.264       .  A
C414        C461   1.479       .  S
C415        C453   1.478       .  S
O417        C420   1.265       .  A
O418        C420   1.281       .  A
C420        C489   1.481       .  S
O421        C426   1.271       .  A
O422        C424   1.271       .  A
C423        O425   1.273       .  A
C423        C469   1.455   1_545  S
C424        C466   1.471       .  S
C426        C450   1.491       .  S
Fe427       O443   2.077       .  S
Fe427       O433   2.103       .  S
Fe427       O440   2.121       .  S
Fe427       O432   2.061       .  S
Fe427       O438   1.948       .  S
Fe428       O431   2.014       .  S
Fe428       O435   2.089       .  S
Fe428       O439   2.032       .  S
Fe428       O444   2.083       .  S
Fe428       O438   1.949       .  S
Fe429       O447   2.089       .  S
Fe429       O434   2.046       .  S
Fe429       O441   2.039       .  S
Fe429       O430   2.091       .  S
Fe429       O438   1.951       .  S
O430        C437   1.277       .  A
O431        C445   1.264       .  A
O432        C437   1.273       .  A
O433        C436   1.276       .  A
O434        C446   1.266       .  A
O435        C448   1.270       .  A
C436        O441   1.265       .  A
C436        C474   1.480       .  S
C437        C454   1.479       .  S
O439        C442   1.266       .  A
O440        C442   1.282       .  A
C442        C494   1.481       .  S
O443        C448   1.270       .  A
O444        C446   1.270       .  A
C445        O447   1.275       .  A
C445        C457   1.456   1_545  S
C446        C477   1.470       .  S
C448        C449   1.490       .  S
C449        C450   1.349       .  D
C449        H451   1.087       .  S
C450        H452   1.087       .  S
C453        C998   1.347   1_455  D
C453        H455   1.086       .  S
C454        C997   1.347       .  D
C454        H456   1.087       .  S
C457        C458   1.348   1_565  D
C457        H459   1.087       .  S
C458        H460   1.087       .  S
C461        C462   1.351   1_545  D
C461        H463   1.087       .  S
C462        H464   1.086       .  S
C465        C466   1.352   1_565  D
C465        H467   1.087       .  S
C466        H468   1.086       .  S
C469        H471   1.087       .  S
C470        H472   1.087       .  S
C473        C474   1.352   1_565  D
C473        H475   1.086       .  S
C474        H476   1.087       .  S
C477        C478   1.351   1_545  D
C477        H479   1.086       .  S
C478        H480   1.087       .  S
C481        C482   1.349       .  D
C481        H483   1.087       .  S
C482        H484   1.087       .  S
C485       C1030   1.347       .  D
C485        H487   1.086       .  S
C486       C1029   1.347   1_455  D
C486        H488   1.087   1_455  S
C489        H491   1.086       .  S
C490        H492   1.086       .  S
C493        C494   1.355       .  D
C493        H495   1.086       .  S
C494        H496   1.086       .  S
C497        C498   1.347       .  D
C497        H499   1.086       .  S
C498        H500   1.087       .  S
C501       C1046   1.349       .  D
C501        H503   1.087       .  S
C502       C1045   1.349       .  D
C502        H504   1.087   1_455  S
C505        H507   1.086       .  S
C506        H508   1.086       .  S
C509        C510   1.351       .  D
C509        H511   1.087       .  S
C510        H512   1.086       .  S
C513        C514   1.351       .  D
C513        H515   1.086       .  S
C514        H516   1.087       .  S
C517        C790   1.348   1_556  D
C517        H519   1.087       .  S
C518        C789   1.348   1_455  D
C518        H520   1.087       .  S
C521        C522   1.355       .  D
C521        H523   1.086       .  S
C522        H524   1.086       .  S
C525        C526   1.351       .  D
C525        H527   1.087       .  S
C526        H528   1.086       .  S
C529        C530   1.351       .  D
C529        H531   1.087       .  S
C530        H532   1.086       .  S
C533        C534   1.347       .  D
C533        H535   1.086       .  S
C534        H536   1.087       .  S
C537       C1082   1.349       .  D
C537        H539   1.087       .  S
C538       C1081   1.349       .  D
C538        H540   1.087       .  S
C541       C1086   1.346   1_455  D
C541        H543   1.087       .  S
C542       C1085   1.346       .  D
C542        H544   1.087       .  S
Fe545       O561   2.077       .  S
Fe545       O551   2.103       .  S
Fe545       O558   2.116       .  S
Fe545       O550   2.064       .  S
Fe545       O556   1.947       .  S
Fe546       O549   2.015       .  S
Fe546       O553   2.089       .  S
Fe546       O557   2.035       .  S
Fe546       O562   2.083       .  S
Fe546       O556   1.951       .  S
Fe547       O565   2.081       .  S
Fe547       O552   2.048       .  S
Fe547       O559   2.037       .  S
Fe547       O548   2.088       .  S
Fe547       O556   1.953       .  S
O548        C555   1.277       .  A
O549        C563   1.264       .  A
O550        C555   1.272       .  A
O551        C554   1.276       .  A
O552        C564   1.267       .  A
O553        C566   1.271       .  A
C554        O559   1.264       .  A
C554        C797   1.479       .  S
C555        C805   1.477       .  S
O557        C560   1.265       .  A
O558        C560   1.281       .  A
C560        C793   1.481       .  S
O561        C566   1.271       .  A
O562        C564   1.271       .  A
C563        O565   1.273       .  A
C563        C813   1.454       .  S
C564        C802   1.471       .  S
C566        C810   1.491       .  S
Fe567       O583   2.077       .  S
Fe567       O573   2.102       .  S
Fe567       O580   2.121       .  S
Fe567       O572   2.061       .  S
Fe567       O578   1.948       .  S
Fe568       O571   2.014       .  S
Fe568       O575   2.089       .  S
Fe568       O579   2.031       .  S
Fe568       O856   2.082       .  S
Fe568       O578   1.949       .  S
Fe569       O587   2.090       .  S
Fe569       O574   2.046       .  S
Fe569       O581   2.039       .  S
Fe569       O570   2.091       .  S
Fe569       O578   1.951       .  S
O570        C577   1.277       .  A
O571        C585   1.264       .  A
O572        C577   1.273       .  A
O573        C576   1.276       .  A
O574        C858   1.266       .  A
O575        C588   1.270       .  A
C576        O581   1.265       .  A
C576        C781   1.480       .  S
C577        C806   1.479       .  S
O579        C582   1.265       .  A
O580        C582   1.282       .  A
C582        C777   1.481       .  S
O583        C588   1.270       .  A
O584       Fe840   2.082   1_554  S
O584        C586   1.269       .  A
C585        O587   1.275       .  A
C585        C789   1.457       .  S
C586        O846   1.266   1_554  A
C586        C785   1.470       .  S
C588        C809   1.490       .  S
Fe589       O605   2.116       .  S
Fe589       O595   2.064       .  S
Fe589       O602   2.077       .  S
Fe589       O594   2.103       .  S
Fe589       O600   1.947       .  S
Fe590       O593   2.082       .  S
Fe590       O597   2.035       .  S
Fe590       O601   2.089       .  S
Fe590       O606   2.015       .  S
Fe590       O600   1.951       .  S
Fe591       O609   2.048       .  S
Fe591       O596   2.081       .  S
Fe591       O603   2.088       .  S
Fe591       O592   2.036       .  S
Fe591       O600   1.953       .  S
O592        C599   1.264       .  A
O593        C607   1.271       .  A
O594        C599   1.276       .  A
O595        C598   1.272       .  A
O596        C608   1.273       .  A
O597        C610   1.265       .  A
C598        O603   1.276       .  A
C598        C769   1.477       .  S
C599        C786   1.479       .  S
O601        C604   1.271       .  A
O602        C604   1.271       .  A
C604        C773   1.491   1_655  S
O605        C610   1.281       .  A
O606        C608   1.264       .  A
C607        O609   1.267       .  A
C607        C782   1.470       .  S
C608        C814   1.454       .  S
C610        C765   1.481       .  S
Fe611       O627   2.120       .  S
Fe611       O617   2.060       .  S
Fe611       O624   2.077       .  S
Fe611       O616   2.102       .  S
Fe611       O622   1.948       .  S
Fe612       O887   2.082   1_554  S
Fe612       O619   2.032       .  S
Fe612       O623   2.089       .  S
Fe612       O628   2.014       .  S
Fe612       O622   1.949       .  S
Fe613       O631   2.046       .  S
Fe613       O618   2.090       .  S
Fe613       O625   2.091       .  S
Fe613       O614   2.039       .  S
Fe613       O622   1.951       .  S
O614        C621   1.265       .  A
O615       Fe884   2.082       .  S
O615        C629   1.269       .  A
O616        C621   1.276       .  A
O617        C620   1.273       .  A
O618        C630   1.275       .  A
O619        C632   1.265       .  A
C620        O625   1.277       .  A
C620        C770   1.479       .  S
C621        C801   1.480       .  S
O623        C626   1.270       .  A
O624        C626   1.270       .  A
C626        C774   1.490       .  S
O627        C632   1.282       .  A
O628        C630   1.264       .  A
C629        O903   1.266       .  A
C629        C798   1.470       .  S
C630        C790   1.457       .  S
O631        C901   1.266   1_554  A
C632        C762   1.481       .  S
Fe633       O649   2.116       .  S
Fe633       O639   2.065       .  S
Fe633       O646   2.078       .  S
Fe633       O638   2.103       .  S
Fe633       O644   1.947       .  S
Fe634       O909   2.083   1_554  S
Fe634       O641   2.035       .  S
Fe634       O645   2.090       .  S
Fe634       O650   2.015       .  S
Fe634       O644   1.951       .  S
Fe635       O653   2.048       .  S
Fe635       O640   2.082       .  S
Fe635       O647   2.090       .  S
Fe635       O636   2.036       .  S
Fe635       O644   1.953       .  S
O636        C643   1.264       .  A
O637       Fe906   2.083       .  S
O637        C651   1.271       .  A
O638        C643   1.276       .  A
O639        C642   1.272       .  A
O640        C652   1.273       .  A
O641        C654   1.265       .  A
C642        O647   1.277       .  A
C642        C757   1.478       .  S
C643        C750   1.479       .  S
O645        C648   1.271       .  A
O646        C648   1.271       .  A
C648        C754   1.491       .  S
O649        C654   1.281       .  A
O650        C652   1.264       .  A
C651        O925   1.267       .  A
C651        C745   1.470       .  S
C652        C742   1.455   1_565  S
O653        C923   1.267   1_554  A
C654        C778   1.480       .  S
Fe655       O671   2.120       .  S
Fe655       O661   2.061       .  S
Fe655       O668   2.078       .  S
Fe655       O660   2.102       .  S
Fe655       O666   1.948       .  S
Fe656       O659   2.082       .  S
Fe656       O663   2.032       .  S
Fe656       O667   2.089       .  S
Fe656       O672   2.014       .  S
Fe656       O666   1.949       .  S
Fe657       O675   2.046       .  S
Fe657       O662   2.090       .  S
Fe657       O669   2.092       .  S
Fe657       O658   2.039       .  S
Fe657       O666   1.951       .  S
O658        C665   1.265       .  A
O659        C673   1.269       .  A
O660        C665   1.276       .  A
O661        C664   1.273       .  A
O662        C674   1.275       .  A
O663        C676   1.266       .  A
C664        O669   1.277       .  A
C664        C758   1.479       .  S
C665        C737   1.479       .  S
O667        C670   1.270       .  A
O668        C670   1.270       .  A
C670        C753   1.491       .  S
O671        C676   1.282       .  A
O672        C674   1.264       .  A
C673        O675   1.266       .  A
C673        C734   1.470       .  S
C674        C730   1.457   1_565  S
C676        C794   1.481       .  S
Fe677       O693   2.077       .  S
Fe677       O683   2.103       .  S
Fe677       O690   2.115       .  S
Fe677       O682   2.064       .  S
Fe677       O688   1.947       .  S
Fe678       O681   2.015       .  S
Fe678       O685   2.090       .  S
Fe678       O689   2.035       .  S
Fe678       O966   2.083       .  S
Fe678       O688   1.951       .  S
Fe679       O697   2.081       .  S
Fe679       O684   2.048       .  S
Fe679       O691   2.036       .  S
Fe679       O680   2.089       .  S
Fe679       O688   1.953       .  S
O680        C687   1.277       .  A
O681        C695   1.264       .  A
O682        C687   1.272       .  A
O683        C686   1.276       .  A
O684        C968   1.267       .  A
O685        C698   1.271       .  A
C686        O691   1.264       .  A
C686        C733   1.479       .  S
C687        C725   1.478       .  S
O689        C692   1.265       .  A
O690        C692   1.281       .  A
C692        C761   1.480       .  S
O693        C698   1.271       .  A
O694       Fe950   2.082   1_554  S
O694        C696   1.270       .  A
C695        O697   1.273       .  A
C695        C741   1.455   1_545  S
C696        O956   1.267   1_554  A
C696        C738   1.470       .  S
C698        C722   1.491       .  S
Fe699       O715   2.078       .  S
Fe699       O705   2.102       .  S
Fe699       O712   2.121       .  S
Fe699       O704   2.061       .  S
Fe699       O710   1.948       .  S
Fe700       O703   2.014       .  S
Fe700       O707   2.089       .  S
Fe700       O711   2.032       .  S
Fe700       O716   2.082       .  S
Fe700       O710   1.949       .  S
Fe701       O719   2.090       .  S
Fe701       O706   2.046       .  S
Fe701       O713   2.039       .  S
Fe701       O702   2.091       .  S
Fe701       O710   1.951       .  S
O702        C709   1.277       .  A
O703        C717   1.264       .  A
O704        C709   1.273       .  A
O705        C708   1.276       .  A
O706        C718   1.266       .  A
O707        C720   1.270       .  A
C708        O713   1.265       .  A
C708        C746   1.480       .  S
C709        C726   1.479       .  S
O711        C714   1.266       .  A
O712        C714   1.282       .  A
C714        C766   1.481       .  S
O715        C720   1.270       .  A
O716        C718   1.269       .  A
C717        O719   1.275       .  A
C717        C729   1.457   1_545  S
C718        C749   1.470       .  S
C720        C721   1.491       .  S
C721        C722   1.349       .  D
C721        H723   1.087       .  S
C722        H724   1.087       .  S
C725        H727   1.086       .  S
C726        H728   1.087   1_655  S
C729        C730   1.348   1_565  D
C729        H731   1.087       .  S
C730        H732   1.087       .  S
C733        C734   1.351   1_545  D
C733        H735   1.087       .  S
C734        H736   1.086       .  S
C737        C738   1.351   1_565  D
C737        H739   1.087       .  S
C738        H740   1.086       .  S
C741       C1014   1.345   1_565  D
C741        H743   1.087       .  S
C742       C1013   1.346   1_544  D
C742        H744   1.087       .  S
C745        C746   1.352   1_565  D
C745        H747   1.086       .  S
C746        H748   1.087       .  S
C749        C750   1.351   1_545  D
C749        H751   1.086       .  S
C750        H752   1.087       .  S
C753        C754   1.349       .  D
C753        H755   1.087       .  S
C754        H756   1.087       .  S
C757        H759   1.086       .  S
C758        H760   1.087       .  S
C761       C1034   1.355       .  D
C761        H763   1.086       .  S
C762       C1033   1.355   1_554  D
C762        H764   1.086       .  S
C765        C766   1.355       .  D
C765        H767   1.086       .  S
C766        H768   1.086       .  S
C769        C770   1.347       .  D
C769        H771   1.086       .  S
C770        H772   1.087       .  S
C773        H775   1.087       .  S
C774        H776   1.087       .  S
C777       C1050   1.355       .  D
C777        H779   1.086       .  S
C778       C1049   1.355   1_554  D
C778        H780   1.086       .  S
C781        C782   1.351       .  D
C781        H783   1.087       .  S
C782        H784   1.086       .  S
C785        C786   1.351       .  D
C785        H787   1.086       .  S
C786        H788   1.087       .  S
C789        H791   1.087       .  S
C790        H792   1.087       .  S
C793        C794   1.355       .  D
C793        H795   1.086       .  S
C794        H796   1.086       .  S
C797        C798   1.351       .  D
C797        H799   1.087       .  S
C798        H800   1.086       .  S
C801        C802   1.351       .  D
C801        H803   1.087       .  S
C802        H804   1.086       .  S
C805        C806   1.347       .  D
C805        H807   1.086       .  S
C806        H808   1.087       .  S
C809        H811   1.087   1_655  S
C810        H812   1.087       .  S
C813        H815   1.087       .  S
C814        H816   1.087       .  S
Fe817       O833   2.077       .  S
Fe817       O823   2.103       .  S
Fe817       O830   2.116       .  S
Fe817       O822   2.064       .  S
Fe817       O828   1.947       .  S
Fe818       O821   2.016       .  S
Fe818       O825   2.089       .  S
Fe818       O829   2.035       .  S
Fe818       O834   2.082       .  S
Fe818       O828   1.951       .  S
Fe819       O837   2.082       .  S
Fe819       O824   2.048       .  S
Fe819       O831   2.037       .  S
Fe819       O820   2.090       .  S
Fe819       O828   1.953       .  S
O820        C827   1.277       .  A
O821        C835   1.264       .  A
O822        C827   1.271       .  A
O823        C826   1.276       .  A
O824        C836   1.267       .  A
O825        C838   1.271       .  A
C826        O831   1.264       .  A
C826       C1069   1.479       .  S
C827       C1077   1.478       .  S
O829        C832   1.265       .  A
O830        C832   1.281       .  A
C832       C1065   1.481       .  S
O833        C838   1.271       .  A
O834        C836   1.270       .  A
C835        O837   1.273       .  A
C835       C1085   1.455       .  S
C836       C1074   1.470       .  S
C838       C1082   1.491       .  S
Fe839       O855   2.078       .  S
Fe839       O845   2.102       .  S
Fe839       O852   2.120       .  S
Fe839       O844   2.061       .  S
Fe839       O850   1.948       .  S
Fe840       O843   2.014       .  S
Fe840       O847   2.089       .  S
Fe840       O851   2.031       .  S
Fe840       O850   1.949       .  S
Fe841       O859   2.090       .  S
Fe841       O846   2.046       .  S
Fe841       O853   2.038       .  S
Fe841       O842   2.091       .  S
Fe841       O850   1.951       .  S
O842        C849   1.277       .  A
O843        C857   1.264       .  A
O844        C849   1.273       .  A
O845        C848   1.276       .  A
O847        C860   1.270       .  A
C848        O853   1.264       .  A
C848       C1053   1.479       .  S
C849       C1078   1.479       .  S
O851        C854   1.266       .  A
O852        C854   1.282       .  A
C854       C1049   1.481       .  S
O855        C860   1.270       .  A
O856        C858   1.269       .  A
C857        O859   1.275       .  A
C857       C1061   1.457       .  S
C858       C1057   1.470       .  S
C860       C1081   1.490       .  S
Fe861       O877   2.116       .  S
Fe861       O867   2.064       .  S
Fe861       O874   2.077       .  S
Fe861       O866   2.103       .  S
Fe861       O872   1.947       .  S
Fe862       O865   2.082       .  S
Fe862       O869   2.035       .  S
Fe862       O873   2.090       .  S
Fe862       O878   2.016       .  S
Fe862       O872   1.951       .  S
Fe863       O881   2.047       .  S
Fe863       O868   2.082       .  S
Fe863       O875   2.089       .  S
Fe863       O864   2.036       .  S
Fe863       O872   1.953       .  S
O864        C871   1.264       .  A
O865        C879   1.271       .  A
O866        C871   1.276       .  A
O867        C870   1.272       .  A
O868        C880   1.273       .  A
O869        C882   1.265       .  A
C870        O875   1.277       .  A
C870       C1041   1.478       .  S
C871       C1058   1.479       .  S
O873        C876   1.271       .  A
O874        C876   1.271       .  A
C876       C1045   1.491   1_655  S
O877        C882   1.281       .  A
O878        C880   1.264       .  A
C879        O881   1.267       .  A
C879       C1054   1.470       .  S
C880       C1086   1.455       .  S
C882       C1037   1.481       .  S
Fe883       O899   2.120       .  S
Fe883       O889   2.061       .  S
Fe883       O896   2.077       .  S
Fe883       O888   2.102       .  S
Fe883       O894   1.948       .  S
Fe884       O891   2.032       .  S
Fe884       O895   2.089       .  S
Fe884       O900   2.014       .  S
Fe884       O894   1.949       .  S
Fe885       O903   2.046       .  S
Fe885       O890   2.090       .  S
Fe885       O897   2.091       .  S
Fe885       O886   2.039       .  S
Fe885       O894   1.951       .  S
O886        C893   1.265       .  A
O887        C901   1.269       .  A
O888        C893   1.276       .  A
O889        C892   1.273       .  A
O890        C902   1.275       .  A
O891        C904   1.266       .  A
C892        O897   1.277       .  A
C892       C1042   1.479       .  S
C893       C1073   1.479       .  S
O895        C898   1.270       .  A
O896        C898   1.270       .  A
C898       C1046   1.491       .  S
O899        C904   1.282       .  A
O900        C902   1.264       .  A
C901       C1070   1.470       .  S
C902       C1062   1.457       .  S
C904       C1034   1.481       .  S
Fe905       O921   2.116       .  S
Fe905       O911   2.064       .  S
Fe905       O918   2.077       .  S
Fe905       O910   2.104       .  S
Fe905       O916   1.947       .  S
Fe906       O913   2.035       .  S
Fe906       O917   2.090       .  S
Fe906       O922   2.015       .  S
Fe906       O916   1.951       .  S
Fe907       O925   2.048       .  S
Fe907       O912   2.081       .  S
Fe907       O919   2.089       .  S
Fe907       O908   2.037       .  S
Fe907       O916   1.953       .  S
O908        C915   1.264       .  A
O909        C923   1.271       .  A
O910        C915   1.276       .  A
O911        C914   1.271       .  A
O912        C924   1.273       .  A
O913        C926   1.265       .  A
C914        O919   1.277       .  A
C914       C1029   1.477       .  S
C915       C1022   1.479       .  S
O917        C920   1.271       .  A
O918        C920   1.271       .  A
C920       C1026   1.491       .  S
O921        C926   1.281       .  A
O922        C924   1.264       .  A
C923       C1017   1.471       .  S
C924       C1014   1.455   1_565  S
C926       C1050   1.481       .  S
Fe927       O943   2.121       .  S
Fe927       O933   2.061       .  S
Fe927       O940   2.077       .  S
Fe927       O932   2.102       .  S
Fe927       O938   1.948       .  S
Fe928       O931   2.082       .  S
Fe928       O935   2.032       .  S
Fe928       O939   2.089       .  S
Fe928       O944   2.014       .  S
Fe928       O938   1.949       .  S
Fe929       O947   2.046       .  S
Fe929       O934   2.090       .  S
Fe929       O941   2.091       .  S
Fe929       O930   2.039       .  S
Fe929       O938   1.951       .  S
O930        C937   1.265       .  A
O931        C945   1.269       .  A
O932        C937   1.276       .  A
O933        C936   1.273       .  A
O934        C946   1.275       .  A
O935        C948   1.266       .  A
C936        O941   1.277       .  A
C936       C1030   1.479       .  S
C937       C1009   1.480       .  S
O939        C942   1.270       .  A
O940        C942   1.270       .  A
C942       C1025   1.490       .  S
O943        C948   1.282       .  A
O944        C946   1.264       .  A
C945        O947   1.266       .  A
C945       C1006   1.470       .  S
C946       C1002   1.456   1_565  S
C948       C1066   1.481       .  S
Fe949       O965   2.077       .  S
Fe949       O955   2.103       .  S
Fe949       O962   2.116       .  S
Fe949       O954   2.064       .  S
Fe949       O960   1.947       .  S
Fe950       O953   2.016       .  S
Fe950       O957   2.089       .  S
Fe950       O961   2.035       .  S
Fe950       O960   1.951       .  S
Fe951       O969   2.082       .  S
Fe951       O956   2.048       .  S
Fe951       O963   2.037       .  S
Fe951       O952   2.089       .  S
Fe951       O960   1.953       .  S
O952        C959   1.277       .  A
O953        C967   1.264       .  A
O954        C959   1.271       .  A
O955        C958   1.276       .  A
O957        C970   1.271       .  A
C958        O963   1.264       .  A
C958       C1005   1.479       .  S
C959        C997   1.478       .  S
O961        C964   1.265       .  A
O962        C964   1.281       .  A
C964       C1033   1.481       .  S
O965        C970   1.271       .  A
O966        C968   1.271       .  A
C967        O969   1.273       .  A
C967       C1013   1.455   1_545  S
C968       C1010   1.471       .  S
C970        C994   1.491       .  S
Fe971       O987   2.077       .  S
Fe971       O977   2.103       .  S
Fe971       O984   2.121       .  S
Fe971       O976   2.061       .  S
Fe971       O982   1.948       .  S
Fe972       O975   2.014       .  S
Fe972       O979   2.089       .  S
Fe972       O983   2.032       .  S
Fe972       O988   2.083       .  S
Fe972       O982   1.949       .  S
Fe973       O991   2.090       .  S
Fe973       O978   2.046       .  S
Fe973       O985   2.039       .  S
Fe973       O974   2.091       .  S
Fe973       O982   1.951       .  S
O974        C981   1.277       .  A
O975        C989   1.264       .  A
O976        C981   1.273       .  A
O977        C980   1.276       .  A
O978        C990   1.266       .  A
O979        C992   1.270       .  A
C980        O985   1.265       .  A
C980       C1018   1.480       .  S
C981        C998   1.479       .  S
O983        C986   1.266       .  A
O984        C986   1.282       .  A
C986       C1038   1.482       .  S
O987        C992   1.270       .  A
O988        C990   1.270       .  A
C989        O991   1.275       .  A
C989       C1001   1.456   1_545  S
C990       C1021   1.470       .  S
C992        C993   1.490       .  S
C993        C994   1.349       .  D
C993        H995   1.087       .  S
C994        H996   1.087       .  S
C997        H999   1.086       .  S
C998       H1000   1.087   1_655  S
C1001      C1002   1.348   1_565  D
C1001      H1003   1.087       .  S
C1002      H1004   1.087       .  S
C1005      C1006   1.351   1_545  D
C1005      H1007   1.087       .  S
C1006      H1008   1.086       .  S
C1009      C1010   1.352   1_565  D
C1009      H1011   1.087       .  S
C1010      H1012   1.086       .  S
C1013      H1015   1.087       .  S
C1014      H1016   1.087       .  S
C1017      C1018   1.352   1_565  D
C1017      H1019   1.086       .  S
C1018      H1020   1.087       .  S
C1021      C1022   1.351   1_545  D
C1021      H1023   1.086       .  S
C1022      H1024   1.087       .  S
C1025      C1026   1.349       .  D
C1025      H1027   1.087       .  S
C1026      H1028   1.087       .  S
C1029      H1031   1.086       .  S
C1030      H1032   1.087       .  S
C1033      H1035   1.086       .  S
C1034      H1036   1.086       .  S
C1037      C1038   1.355       .  D
C1037      H1039   1.086       .  S
C1038      H1040   1.086       .  S
C1041      C1042   1.347       .  D
C1041      H1043   1.086       .  S
C1042      H1044   1.087       .  S
C1045      H1047   1.087       .  S
C1046      H1048   1.087       .  S
C1049      H1051   1.086       .  S
C1050      H1052   1.086       .  S
C1053      C1054   1.351       .  D
C1053      H1055   1.087       .  S
C1054      H1056   1.086       .  S
C1057      C1058   1.351       .  D
C1057      H1059   1.086       .  S
C1058      H1060   1.087       .  S
C1061      H1063   1.087       .  S
C1062      H1064   1.087       .  S
C1065      C1066   1.355       .  D
C1065      H1067   1.086       .  S
C1066      H1068   1.086       .  S
C1069      C1070   1.351       .  D
C1069      H1071   1.087       .  S
C1070      H1072   1.086       .  S
C1073      C1074   1.351       .  D
C1073      H1075   1.087       .  S
C1074      H1076   1.086       .  S
C1077      C1078   1.347       .  D
C1077      H1079   1.086       .  S
C1078      H1080   1.087       .  S
C1081      H1083   1.087   1_655  S
C1082      H1084   1.087       .  S
C1085      H1087   1.087       .  S
C1086      H1088   1.087       .  S
