geometry optimzed in LAMMPS
_audit_creation_date              2020-12-01 
_audit_creation_method            'lammps2cif' 
_symmetry_space_group_name_H-M    'P1' 
_symmetry_Int_Tables_number       1 
_symmetry_cell_setting            triclinic 
loop_ 
_symmetry_equiv_pos_as_xyz 
  x,y,z 
_cell_length_a                    56.78445375 
_cell_length_b                    57.020171072801126 
_cell_length_c                    43.900807245825185 
_cell_angle_alpha                 89.96148646756815 
_cell_angle_beta                  90.07177317418746 
_cell_angle_gamma                 121.41367835326282 
loop_ 
_atom_site_label 
_atom_site_type_symbol 
_atom_site_fract_x 
_atom_site_fract_y 
_atom_site_fract_z 
_atom_site_charge 
In1        In  0.99842963  0.43099548  0.21419328     1.36900
C2          C  0.95024108  0.38832324  0.23165284     0.77400
O3          O  0.99671288  0.44674464  0.26071252    -0.61100
O4          O  0.99687662  0.46925020  0.22209905    -0.52000
C5          C  0.04767992  0.43916719  0.22802366     0.70100
O6          O  0.02743051  0.41546329  0.22237614    -0.46800
C7          C  0.99976193  0.43347394  0.15323418     0.74800
O8          O  0.97289193  0.39317108  0.24251074    -0.58700
O9          O  0.00018371  0.45177478  0.16976402    -0.48800
O10         O  0.95232873  0.40412698  0.21035503    -0.55100
C11         C  0.99657091  0.46738760  0.25079642     0.84900
O12         O  0.04302806  0.45831134  0.22489691    -0.57000
O13         O  0.99855114  0.41378826  0.16779243    -0.60300
In14       In  0.99985440  0.52753422  0.30689507     1.36900
C15         C  0.95209055  0.52407846  0.29586930     0.77400
O16         O  0.99799453  0.50924002  0.26091787    -0.61100
O17         O  0.99671462  0.48655351  0.29971868    -0.52000
C18         C  0.04975561  0.56814709  0.28999920     0.70100
O19         O  0.02777297  0.56511316  0.27920473    -0.46800
C20         C  0.00142159  0.53083817  0.36769141     0.74800
O21         O  0.97503233  0.54537229  0.29000385    -0.58700
O22         O  0.00116899  0.51144076  0.35350352    -0.48800
O23         O  0.95366004  0.50490072  0.30805176    -0.55100
C24         C  0.99688433  0.48807529  0.27102801     0.84900
O25         O  0.04614590  0.55106516  0.31047297    -0.57000
O26         O  0.00101222  0.54855568  0.35085162    -0.60300
In27       In  0.00087141  0.43762380  0.05885559     1.36900
C28         C  0.05015892  0.44628641  0.04337468     0.77400
O29         O  0.00086373  0.45385950  0.01220676    -0.61100
O30         O  0.00184283  0.47714418  0.05043559    -0.52000
C31         C  0.94993209  0.39692688  0.04632279     0.70100
O32         O  0.97075030  0.39518491  0.04038134    -0.46800
C33         C  0.00049731  0.43499416  0.11969865     0.74800
O34         O  0.02788223  0.42469923  0.03602210    -0.58700
O35         O  0.00203231  0.45492986  0.10534475    -0.48800
O36         O  0.04699488  0.46243694  0.06006029    -0.55100
C37         C  0.00137805  0.47491719  0.02178732     0.84900
O38         O  0.95543044  0.41892694  0.05924507    -0.57000
O39         O  0.99952641  0.41649309  0.10299052    -0.60300
In40       In  0.00367029  0.53583154  0.46193309     1.36900
C41         C  0.05409450  0.57910970  0.47218326     0.77400
O42         O  0.00168415  0.51610009  0.01058034    -0.61100
O43         O  0.00124220  0.49592380  0.47228483    -0.52000
C44         C  0.95544021  0.53004407  0.47724073     0.70100
O45         O  0.97832973  0.55068088  0.48478203    -0.46800
C46         C  0.00216243  0.53268792  0.40117707     0.74800
O47         O  0.03246301  0.57898947  0.47898584    -0.58700
O48         O  0.00332367  0.51535741  0.41794996    -0.48800
O49         O  0.04979851  0.55766748  0.45886910    -0.55100
C50         C  0.00330368  0.49951202  0.50069578     0.84900
O51         O  0.95722002  0.51304579  0.46058360    -0.57000
O52         O  0.00169658  0.55168786  0.41542306    -0.60300
C53         C  0.31586934  0.78051369  0.48531915     0.86300
C54         C  0.33251852  0.77394737  0.99281648    -0.53900
C55         C  0.36301062  0.79024747  0.48277572     0.09200
C56         C  0.36640623  0.81648454  0.46852831     0.20200
C57         C  0.32509498  0.81137018  0.00396173    -0.54700
C58         C  0.35535802  0.82770948  0.49321030     0.09300
C59         C  0.31886530  0.78844299  0.45157227    -0.54200
C60         C  0.34516014  0.80652528  0.44267324     0.09900
H61         H  0.32685670  0.75486562  0.00440712     0.14400
H62         H  0.38743180  0.83102813  0.45998385     0.00100
H63         H  0.31457947  0.81590543  0.02139057     0.14700
H64         H  0.30171993  0.77967466  0.43560631     0.14500
C65         C  0.20824192  0.68278324  0.02389295     0.86300
C66         C  0.21129746  0.65839920  0.01394839    -0.53900
C67         C  0.19024815  0.63274809  0.02245132     0.09200
C68         C  0.16803522  0.63423518  0.04119233     0.20200
C69         C  0.17977100  0.67521057  0.01160527    -0.54700
C70         C  0.15880094  0.64990232  0.02068054     0.09300
C71         C  0.20485852  0.67900664  0.05861184    -0.54200
C72         C  0.18369080  0.65388265  0.06748086     0.09900
H73         H  0.22883177  0.66138488  0.00100591     0.14400
H74         H  0.15087537  0.61447095  0.04983232     0.00100
H75         H  0.18140146  0.68793855  0.49520339     0.14700
H76         H  0.21840481  0.69423184  0.07512932     0.14500
C77         C  0.20344744  0.49706522  0.48330361     0.86300
C78         C  0.21267184  0.52932033  0.99584136    -0.53900
C79         C  0.18984162  0.53165681  0.48574126     0.09200
C80         C  0.16507702  0.50773253  0.46914383     0.20200
C81         C  0.17876502  0.48054983  0.00181670    -0.54700
C82         C  0.15520252  0.48290555  0.49058357     0.09300
C83         C  0.19736562  0.49595886  0.44903368    -0.54200
C84         C  0.17781159  0.50193590  0.44170392     0.09900
H85         H  0.23076653  0.54388923  0.00869243     0.14400
H86         H  0.14862689  0.51170487  0.46244927     0.00100
H87         H  0.17548413  0.46498501  0.01839196     0.14700
H88         H  0.20789995  0.49220888  0.43104950     0.14500
C89         C  0.30614261  0.49707419  0.02459593     0.86300
C90         C  0.33041391  0.52446815  0.01237609    -0.53900
C91         C  0.35596322  0.52931121  0.01990071     0.09200
C92         C  0.35510549  0.50651012  0.03927637     0.20200
C93         C  0.31203328  0.47493043  0.01308804    -0.54700
C94         C  0.33782282  0.48029860  0.02052345     0.09300
C95         C  0.31156763  0.49797603  0.05913687    -0.54200
C96         C  0.33722921  0.50355680  0.06660651     0.09900
H97         H  0.32746860  0.53903842  0.99955784     0.14400
H98         H  0.37579807  0.51035776  0.04554300     0.00100
H99         H  0.29843646  0.45918560  0.49163306     0.14700
H100        H  0.29684768  0.49430564  0.07691471     0.14500
C101        C  0.49343425  0.67749115  0.99190478     0.86300
C102        C  0.46434737  0.65319400  0.99938931    -0.53900
C103        C  0.45957209  0.62794709  0.49106308     0.09200
C104        C  0.48434172  0.62796121  0.47698598     0.20200
C105        C  0.51337848  0.67028903  0.00725685    -0.54700
C106        C  0.50878543  0.64488468  0.99948943     0.09300
C107        C  0.49847709  0.67341616  0.45812177    -0.54200
C108        C  0.49366837  0.64822597  0.45028949     0.09900
H109        H  0.44849702  0.65555622  0.01018390     0.14400
H110        H  0.47964995  0.60713359  0.47047060     0.00100
H111        H  0.52982078  0.68433847  0.02241427     0.14700
H112        H  0.50417651  0.68875061  0.44065352     0.14500
C113        C  0.48877151  0.77510183  0.02872037     0.86300
C114        C  0.45994538  0.76805131  0.01813879    -0.53900
C115        C  0.45337448  0.78728505  0.02549450     0.09200
C116        C  0.47597346  0.81151366  0.04409792     0.20200
C117        C  0.50874304  0.80434494  0.01602246    -0.54700
C118        C  0.50161101  0.82311998  0.02370926     0.09300
C119        C  0.48919539  0.78007644  0.06319531    -0.54200
C120        C  0.48224501  0.79866001  0.07131292     0.09900
H121        H  0.44611591  0.74941208  0.00562958     0.14400
H122        H  0.47091926  0.82720694  0.05062884     0.00100
H123        H  0.53160495  0.81133406  0.49992114     0.14700
H124        H  0.49651000  0.77159916  0.08023141     0.14500
C125        C  0.31018266  0.78328316  0.27403943     0.86300
C126        C  0.31885801  0.81045165  0.25743360    -0.53900
C127        C  0.34522555  0.83093976  0.26362934     0.09200
C128        C  0.36035692  0.82312768  0.28669887     0.20200
C129        C  0.33289179  0.77695677  0.26671075    -0.54700
C130        C  0.35935653  0.79764992  0.27310697     0.09300
C131        C  0.31497753  0.79168899  0.30786128    -0.54200
C132        C  0.34119058  0.81226125  0.31447373     0.09900
H133        H  0.30564700  0.81313155  0.24174589     0.14400
H134        H  0.38110666  0.84090489  0.29175158     0.00100
H135        H  0.32789984  0.75720396  0.25759135     0.14700
H136        H  0.29995946  0.78208966  0.32589963     0.14500
C137        C  0.20812622  0.67973709  0.23846334     0.86300
C138        C  0.18000465  0.66884424  0.25457723    -0.53900
C139        C  0.16025800  0.64256848  0.24627856     0.09200
C140        C  0.16999633  0.62971685  0.22254887     0.20200
C141        C  0.21560858  0.65784576  0.24478971    -0.54700
C142        C  0.19548872  0.63156227  0.23734162     0.09300
C143        C  0.20038376  0.67625085  0.20446635    -0.54200
C144        C  0.18093435  0.65025293  0.19609983     0.09900
H145        H  0.17597265  0.68066616  0.27082208     0.14400
H146        H  0.15359100  0.60864953  0.21577283     0.00100
H147        H  0.23530607  0.66299907  0.25453535     0.14700
H148        H  0.20854096  0.69265557  0.18784155     0.14500
C149        C  0.20852845  0.49887811  0.27279074     0.86300
C150        C  0.20406029  0.50016847  0.30720449    -0.53900
C151        C  0.18426658  0.50588995  0.31423318     0.09200
C152        C  0.16988101  0.50910798  0.28653112     0.20200
C153        C  0.17949965  0.47700429  0.26097065    -0.54700
C154        C  0.15915735  0.48243577  0.26790656     0.09300
C155        C  0.21358092  0.52651889  0.26060466    -0.54200
C156        C  0.19326437  0.53151540  0.26747412     0.09900
H157        H  0.21532785  0.49752549  0.32532453     0.14400
H158        H  0.15421021  0.51439225  0.29251758     0.00100
H159        H  0.17564593  0.45877713  0.24885653     0.14700
H160        H  0.23188095  0.54109800  0.24794307     0.14500
C161        C  0.30967147  0.49978685  0.23603027     0.86300
C162        C  0.31550693  0.47797461  0.24831232    -0.53900
C163        C  0.34126855  0.48316603  0.24149813     0.09200
C164        C  0.35856099  0.50905604  0.22186461     0.20200
C165        C  0.33405178  0.52725938  0.24807663    -0.54700
C166        C  0.36009344  0.53259715  0.24092550     0.09300
C167        C  0.31519046  0.50069196  0.20169483    -0.54200
C168        C  0.34058130  0.50580673  0.19438234     0.09900
H169        H  0.30160666  0.46142994  0.26345555     0.14400
H170        H  0.37801433  0.51153388  0.21386346     0.00100
H171        H  0.33019199  0.54052028  0.26207796     0.14700
H172        H  0.30090764  0.49776151  0.18350884     0.14500
C173        C  0.49499277  0.68281624  0.28132572     0.86300
C174        C  0.49969079  0.67919034  0.31504572    -0.53900
C175        C  0.49413767  0.65359295  0.32250286     0.09200
C176        C  0.48515508  0.63392149  0.29537190     0.20200
C177        C  0.51339773  0.67455016  0.26394602    -0.54700
C178        C  0.50808611  0.64889483  0.27159629     0.09300
C179        C  0.46553452  0.65921245  0.27391340    -0.54200
C180        C  0.46014180  0.63363042  0.28134012     0.09900
H181        H  0.50626731  0.69543038  0.33184448     0.14400
H182        H  0.48128692  0.61334464  0.30169552     0.00100
H183        H  0.52867309  0.68694018  0.24692983     0.14700
H184        H  0.45087796  0.66264131  0.26189380     0.14500
C185        C  0.49111767  0.78051575  0.24529246     0.86300
C186        C  0.50895456  0.80873281  0.26068962    -0.53900
C187        C  0.50418544  0.82845952  0.25001606     0.09200
C188        C  0.48202251  0.81833878  0.22509839     0.20200
C189        C  0.46102218  0.77368812  0.24938624    -0.54700
C190        C  0.45658405  0.79368073  0.23946852     0.09300
C191        C  0.49598424  0.78611953  0.21085719    -0.54200
C192        C  0.49156443  0.80605872  0.20039916     0.09900
H193        H  0.52337170  0.81250834  0.27901983     0.14400
H194        H  0.47796838  0.83428143  0.21663117     0.00100
H195        H  0.44454117  0.75516974  0.25992483     0.14700
H196        H  0.50050659  0.77405713  0.19551349     0.14500
In197      In  0.45629608  0.99407726  0.21823726     1.36900
C198        C  0.46162968  0.04140343  0.23635076     0.77400
O199        O  0.47085489  0.99101247  0.26506860    -0.61100
O200        O  0.49558233  0.99431772  0.22725934    -0.52000
C201        C  0.41437296  0.94266985  0.22491477     0.70100
O202        O  0.41140642  0.96291639  0.22911876    -0.46800
C203        C  0.45792213  0.99541408  0.15740942     0.74800
O204        O  0.44316966  0.01840135  0.24664717    -0.58700
O205        O  0.47795361  0.99898204  0.17355969    -0.48800
O206        O  0.47641814  0.03995767  0.21593253    -0.55100
C207        C  0.49201102  0.99145927  0.25569793     0.84900
O208        O  0.43823482  0.94916876  0.21661322    -0.57000
O209        O  0.43747621  0.99229778  0.17233483    -0.60300
In210      In  0.54585212  0.98390892  0.31285971     1.36900
C211        C  0.58907254  0.03226078  0.29836458     0.77400
O212        O  0.53014059  0.98598368  0.26642971    -0.61100
O213        O  0.50859298  0.98775420  0.30482577    -0.52000
C214        C  0.53717960  0.93465607  0.29940819     0.70100
O215        O  0.55934603  0.95664232  0.29312904    -0.46800
C216        C  0.54791465  0.98360321  0.37344151     0.74800
O217        O  0.58658157  0.01004614  0.28947306    -0.58700
O218        O  0.52755533  0.98122167  0.35897376    -0.48800
O219        O  0.57038530  0.02944211  0.31621681    -0.55100
C220        C  0.51071399  0.98839962  0.27619244     0.84900
O221        O  0.51967907  0.93777797  0.31350057    -0.57000
O222        O  0.56735347  0.98626830  0.35696574    -0.60300
In223      In  0.45827145  0.99152022  0.06294705     1.36900
C224        C  0.41870505  0.94026397  0.04850865     0.77400
O225        O  0.47409592  0.99068127  0.01626018    -0.61100
O226        O  0.49690568  0.99059490  0.05468345    -0.52000
C227        C  0.46685591  0.04093285  0.04840702     0.70100
O228        O  0.44333452  0.01924050  0.04623756    -0.46800
C229        C  0.45812531  0.99426614  0.12386991     0.74800
O230        O  0.41654507  0.96068092  0.04196332    -0.58700
O231        O  0.47798938  0.99602704  0.10902459    -0.48800
O232        O  0.43955847  0.94611477  0.06442695    -0.55100
C233        C  0.49445030  0.98969020  0.02602334     0.84900
O234        O  0.48544689  0.03698829  0.05794359    -0.57000
O235        O  0.43823382  0.99089372  0.10765363    -0.60300
In236      In  0.54977101  0.98309245  0.46750121     1.36900
C237        C  0.54237078  0.93391961  0.48085436     0.77400
O238        O  0.53410914  0.98676610  0.01535212    -0.61100
O239        O  0.51172498  0.98529654  0.47579139    -0.52000
C240        C  0.59345013  0.03222038  0.48081428     0.70100
O241        O  0.59206497  0.01008295  0.48781077    -0.46800
C242        C  0.54877510  0.98328749  0.40686512     0.74800
O243        O  0.56300175  0.95614717  0.48985587    -0.58700
O244        O  0.52927466  0.98084775  0.42300682    -0.48800
O245        O  0.52619749  0.93692329  0.46391501    -0.55100
C246        C  0.51331199  0.98486368  0.50436978     0.84900
O247        O  0.57332838  0.02916095  0.46536769    -0.57000
O248        O  0.56889866  0.98543297  0.42168264    -0.60300
C249        C  0.51462974  0.19883643  0.27767654     0.86300
C250        C  0.54090849  0.20041261  0.26504629    -0.53900
C251        C  0.54610755  0.18133990  0.27657169     0.09200
C252        C  0.52413776  0.16170636  0.29938238     0.20200
C253        C  0.49162346  0.16908538  0.27086634    -0.54700
C254        C  0.49684207  0.14968420  0.28167611     0.09300
C255        C  0.51871876  0.20003660  0.31236758    -0.54200
C256        C  0.52353051  0.18064172  0.32382565     0.09900
H257        H  0.55421457  0.21437011  0.24774888     0.14400
H258        H  0.52797655  0.14591879  0.30881086     0.00100
H259        H  0.47425652  0.16399394  0.25606275     0.14700
H260        H  0.51767884  0.21495293  0.32675700     0.14500
C261        C  0.50333832  0.29289001  0.24246800     0.86300
C262        C  0.53167309  0.31849904  0.24876810    -0.53900
C263        C  0.53437698  0.34241803  0.23929801     0.09200
C264        C  0.50816479  0.33908875  0.22481148     0.20200
C265        C  0.48305860  0.29934214  0.25859954    -0.54700
C266        C  0.48561626  0.32354270  0.24898967     0.09300
C267        C  0.49785867  0.29409752  0.20849251    -0.54200
C268        C  0.50034460  0.31807942  0.19913806     0.09900
H269        H  0.54824115  0.31781587  0.26034408     0.14400
H270        H  0.51051907  0.35885037  0.21745350     0.00100
H271        H  0.46857394  0.28685176  0.27622289     0.14700
H272        H  0.49315742  0.27743032  0.19287537     0.14500
C273        C  0.79047396  0.29282909  0.28043053     0.86300
C274        C  0.79050439  0.31905243  0.27100264    -0.53900
C275        C  0.81291120  0.34285485  0.28062766     0.09200
C276        C  0.83320609  0.33894296  0.29954294     0.20200
C277        C  0.81824588  0.29767324  0.26916566    -0.54700
C278        C  0.84063214  0.32202142  0.27850814     0.09300
C279        C  0.79327687  0.29531157  0.31527269    -0.54200
C280        C  0.81564143  0.31926001  0.32529929     0.09900
H281        H  0.77406470  0.31970751  0.25934419     0.14400
H282        H  0.85107610  0.35866897  0.30770678     0.00100
H283        H  0.81980169  0.28321399  0.25453461     0.14700
H284        H  0.77858205  0.27968258  0.33079123     0.14500
C285        C  0.68974236  0.18929153  0.24429214     0.86300
C286        C  0.66536072  0.19264859  0.25207306    -0.53900
C287        C  0.64005140  0.17181870  0.24252928     0.09200
C288        C  0.64165883  0.14840133  0.22689057     0.20200
C289        C  0.68179778  0.16177166  0.25947151    -0.54700
C290        C  0.65660453  0.14050222  0.25026824     0.09300
C291        C  0.68751532  0.18322947  0.21010407    -0.54200
C292        C  0.66254863  0.16194233  0.20103017     0.09900
H293        H  0.66828063  0.21018335  0.26502384     0.14400
H294        H  0.62181884  0.13094559  0.21860707     0.00100
H295        H  0.69374909  0.15894228  0.27669520     0.14700
H296        H  0.70434915  0.19503526  0.19425596     0.14500
C297        C  0.79384104  0.47188854  0.25011758     0.86300
C298        C  0.79020486  0.44411113  0.25904898    -0.53900
C299        C  0.81212797  0.44140089  0.25221055     0.09200
C300        C  0.83552502  0.46664148  0.23568985     0.20200
C301        C  0.82139099  0.49324363  0.26589073    -0.54700
C302        C  0.84312171  0.49030997  0.25787616     0.09300
C303        C  0.80082764  0.47533953  0.21624760    -0.54200
C304        C  0.82205374  0.47214744  0.20855790     0.09900
H305        H  0.77148707  0.42791822  0.26963303     0.14400
H306        H  0.85338731  0.46475532  0.22933496     0.00100
H307        H  0.82380627  0.50855907  0.28223777     0.14700
H308        H  0.78952592  0.47964740  0.19938990     0.14500
C309        C  0.68902006  0.46712962  0.27482809     0.86300
C310        C  0.66247393  0.44050608  0.26425005    -0.53900
C311        C  0.63844454  0.43766204  0.27464206     0.09200
C312        C  0.64299913  0.46148673  0.29530368     0.20200
C313        C  0.68428629  0.49030737  0.26498887    -0.54700
C314        C  0.66011407  0.48722260  0.27550477     0.09300
C315        C  0.68639664  0.46576226  0.30952126    -0.54200
C316        C  0.66256289  0.46274529  0.32042674     0.09900
H317        H  0.66182354  0.42450464  0.25048333     0.14400
H318        H  0.62368413  0.45953375  0.30390470     0.00100
H319        H  0.69772092  0.50643379  0.24916982     0.14700
H320        H  0.70221753  0.46685287  0.32445203     0.14500
C321        C  0.79078034  0.29829097  0.50180521     0.86300
C322        C  0.81875488  0.30499201  0.01093782    -0.53900
C323        C  0.84025617  0.33130804  0.50053902     0.09200
C324        C  0.82962461  0.34550160  0.47965830     0.20200
C325        C  0.78859188  0.32326944  0.01130994    -0.54700
C326        C  0.80892656  0.34835087  0.49986943     0.09300
C327        C  0.79178673  0.29966046  0.46690351    -0.54200
C328        C  0.81225577  0.32393200  0.45535494     0.09900
H329        H  0.82212680  0.29232652  0.02669630     0.14400
H330        H  0.84613399  0.36465913  0.46908430     0.00100
H331        H  0.77262717  0.32187101  0.02578153     0.14700
H332        H  0.77785693  0.28257721  0.45233539     0.14500
C333        C  0.69165976  0.19131172  0.03220561     0.86300
C334        C  0.68471138  0.16446429  0.01579658    -0.53900
C335        C  0.65906365  0.14267775  0.02304716     0.09200
C336        C  0.64276524  0.14959338  0.04562831     0.20200
C337        C  0.66775024  0.19503565  0.02321044    -0.54700
C338        C  0.64196828  0.17355295  0.03021890     0.09300
C339        C  0.68752958  0.18346847  0.06590226    -0.54200
C340        C  0.66203317  0.16210338  0.07306002     0.09900
H341        H  0.69811346  0.16227390  0.00007288     0.14400
H342        H  0.62254251  0.13181508  0.05243807     0.00100
H343        H  0.67141891  0.21321727  0.01105239     0.14700
H344        H  0.70355397  0.19423549  0.08295471     0.14500
C345        C  0.51775969  0.19524200  0.50133597     0.86300
C346        C  0.51961307  0.19519273  0.46655672    -0.53900
C347        C  0.52385457  0.17569092  0.45464073    -0.01600
C348        C  0.52655380  0.15782779  0.47902553     0.20200
C349        C  0.49165669  0.16638196  0.01034666    -0.54700
C350        C  0.50046559  0.14602609  0.49915199     0.09300
C351        C  0.54100694  0.19945283  0.00858191    -0.54200
C352        C  0.55000233  0.17855970  0.49993873     0.09900
H353        H  0.51816872  0.20997434  0.45228047     0.14400
H354        H  0.52996680  0.14195705  0.46912044     0.00100
H355        H  0.47630542  0.16195148  0.02774759     0.14700
H356        H  0.55577657  0.21523931  0.02352812     0.14500
C357        C  0.50686775  0.29366592  0.02883112     0.86300
C358        C  0.48719047  0.30039084  0.01190310    -0.53900
C359        C  0.49065845  0.32514936  0.02044375     0.09200
C360        C  0.51332720  0.34092261  0.04448460     0.20200
C361        C  0.53553003  0.31866160  0.02178675    -0.54700
C362        C  0.53960442  0.34372829  0.03008218     0.09300
C363        C  0.50165179  0.29600624  0.06244464    -0.54200
C364        C  0.50514633  0.32051077  0.07087243     0.09900
H365        H  0.47810875  0.28780717  0.49080607     0.14400
H366        H  0.51503034  0.36020686  0.05201197     0.00100
H367        H  0.55086876  0.31620291  0.00996694     0.14700
H368        H  0.49568160  0.27932335  0.07853278     0.14500
C369        C  0.79873459  0.48270487  0.03689407     0.86300
C370        C  0.82740566  0.50162971  0.02228286    -0.53900
C371        C  0.84690908  0.49572379  0.03120147     0.09200
C372        C  0.83637528  0.47210740  0.05425484     0.20200
C373        C  0.79200939  0.45351842  0.02944847    -0.54700
C374        C  0.81148832  0.44774877  0.03836612     0.09300
C375        C  0.80485948  0.48606645  0.07138774    -0.54200
C376        C  0.82428769  0.48035443  0.08026869     0.09900
H377        H  0.83450129  0.51948026  0.50434275     0.14400
H378        H  0.85237967  0.46782811  0.06204528     0.00100
H379        H  0.77403860  0.43941713  0.01607674     0.14700
H380        H  0.79532546  0.49249575  0.08802804     0.14500
C381        C  0.69594992  0.47539278  0.99400008     0.86300
C382        C  0.68959877  0.49730375  0.00423105    -0.53900
C383        C  0.66544439  0.49377166  0.49644852     0.09200
C384        C  0.64987530  0.46757150  0.47683799     0.20200
C385        C  0.67169061  0.44812409  0.00674993    -0.54700
C386        C  0.64983087  0.44501217  0.49629712     0.09300
C387        C  0.69472175  0.47871095  0.45835963    -0.54200
C388        C  0.66887011  0.47193955  0.44993041     0.09900
H389        H  0.70323025  0.51451673  0.01880641     0.14400
H390        H  0.62927717  0.46291268  0.46912378     0.00100
H391        H  0.67506798  0.43531388  0.02216797     0.14700
H392        H  0.70972304  0.48244657  0.44097586     0.14500
In393      In  0.45079423  0.43986598  0.30992228     1.36900
C394        C  0.45200683  0.39479130  0.29649459     0.77400
O395        O  0.46955457  0.45536728  0.26335557    -0.61100
O396        O  0.49157185  0.47936407  0.30161055    -0.52000
C397        C  0.41035528  0.44918686  0.29700385     0.70100
O398        O  0.40807680  0.42624908  0.29246140    -0.46800
C399        C  0.45147007  0.44011408  0.37092309     0.74800
O400        O  0.43380597  0.39899912  0.28615343    -0.58700
O401        O  0.47192460  0.45682624  0.35505527    -0.48800
O402        O  0.46894193  0.41319457  0.31434354    -0.55100
C403        C  0.49056167  0.47685666  0.27304246     0.84900
O404        O  0.43289129  0.46677895  0.30910621    -0.57000
O405        O  0.43052340  0.42326088  0.35567628    -0.60300
In406      In  0.55100745  0.53532015  0.21600311     1.36900
C407        C  0.59224156  0.52771800  0.23123417     0.77400
O408        O  0.53255206  0.51922976  0.26242600    -0.61100
O409        O  0.51113655  0.49484060  0.22410292    -0.52000
C410        C  0.54448139  0.57766763  0.22808940     0.70100
O411        O  0.56527192  0.57687466  0.23670355    -0.46800
C412        C  0.55292142  0.53584459  0.15506063     0.74800
O413        O  0.59244646  0.54933796  0.23802757    -0.58700
O414        O  0.53257166  0.51778058  0.17008753    -0.48800
O415        O  0.57165789  0.51080705  0.21564898    -0.55100
C416        C  0.51194791  0.49741824  0.25267955     0.84900
O417        O  0.52782516  0.55746669  0.21192768    -0.57000
O418        O  0.57247886  0.55383433  0.17114283    -0.60300
In419      In  0.45367910  0.44021070  0.46534329     1.36900
C420        C  0.41240201  0.44851152  0.47660282     0.77400
O421        O  0.47081598  0.45673034  0.01203234    -0.61100
O422        O  0.49425295  0.47901278  0.47571573    -0.52000
C423        C  0.46002864  0.39731185  0.47428478     0.70100
O424        O  0.43863885  0.39705312  0.48286423    -0.46800
C425        C  0.45215447  0.44021751  0.40448221     0.74800
O426        O  0.41187407  0.42705706  0.48516228    -0.58700
O427        O  0.47251381  0.45825199  0.41962762    -0.48800
O428        O  0.43399093  0.46546771  0.46243630    -0.55100
C429        C  0.49166946  0.47642929  0.50427861     0.84900
O430        O  0.47741439  0.41915789  0.46101371    -0.57000
O431        O  0.43253408  0.42221371  0.42041569    -0.60300
In432      In  0.55361774  0.53509425  0.06057006     1.36900
C433        C  0.54963540  0.57800438  0.04496777     0.77400
O434        O  0.53499476  0.51930067  0.01425159    -0.61100
O435        O  0.51253500  0.49548377  0.05236179    -0.52000
C436        C  0.59506452  0.52723590  0.04810348     0.70100
O437        O  0.59664358  0.54980753  0.04317269    -0.46800
C438        C  0.55350953  0.53576111  0.12147916     0.74800
O439        O  0.56732204  0.57358960  0.03357990    -0.58700
O440        O  0.53350779  0.51784561  0.10586051    -0.48800
O441        O  0.53539039  0.56170529  0.06598676    -0.55100
C442        C  0.51367038  0.49811627  0.02377889     0.84900
O443        O  0.57277537  0.50930586  0.06034435    -0.57000
O444        O  0.57379499  0.55346829  0.10599222    -0.60300
C445        C  0.65046943  0.50434685  0.01224677    -0.00400
C446        C  0.63494233  0.49123390  0.03829300    -0.12200
C447        C  0.61842997  0.49981560  0.05183352     0.01900
C448        C  0.61665642  0.52147523  0.03865647    -0.00400
C449        C  0.63422012  0.53617459  0.01413617    -0.12200
C450        C  0.65252542  0.52945803  0.50612092     0.01800
H451        H  0.63529239  0.47381904  0.04771075     0.14800
H452        H  0.63586453  0.55530045  0.51341525     0.14800
C453        C  0.67186257  0.54767570  0.48354842     0.36400
C454        C  0.60389320  0.48625699  0.07944678     0.36300
N455        N  0.68732810  0.56233867  0.46542136    -0.43900
N456        N  0.59255886  0.47555640  0.10178041    -0.43900
C457        C  0.77496952  0.48617221  0.02558162    -0.00400
C458        C  0.75552692  0.48557269  0.04615757    -0.12200
C459        C  0.73077323  0.48294664  0.03627170     0.01900
C460        C  0.72438546  0.48100232  0.00483452    -0.00400
C461        C  0.74713715  0.48552259  0.48336534    -0.12200
C462        C  0.77133865  0.48689126  0.49320840     0.01800
H463        H  0.75816568  0.48531787  0.07042913     0.14800
H464        H  0.74289564  0.48231000  0.45937454     0.14800
C465        C  0.78772584  0.48357974  0.47038452     0.36400
C466        C  0.71165326  0.48096425  0.05933680     0.36300
N467        N  0.80068407  0.48072679  0.45208894    -0.43900
N468        N  0.69629420  0.47927251  0.07778012    -0.43900
C469        C  0.47698602  0.33808017  0.00552815    -0.00400
C470        C  0.49424509  0.35485811  0.47572667    -0.12200
C471        C  0.48638695  0.37305893  0.46532532     0.01900
C472        C  0.46528358  0.37471225  0.48055635    -0.00400
C473        C  0.45028771  0.36013510  0.00966486    -0.12200
C474        C  0.45746274  0.34173213  0.02107844     0.01800
H475        H  0.51162439  0.35502593  0.46523159     0.14800
H476        H  0.43603307  0.36359370  0.02243515     0.14800
C477        C  0.44545402  0.32770716  0.04941600     0.36400
C478        C  0.50118218  0.39052295  0.43975710     0.36300
N479        N  0.43570079  0.31645810  0.07208971    -0.43900
N480        N  0.51309198  0.40460218  0.41934429    -0.43900
C481        C  0.61917517  0.41723508  0.00810713    -0.00400
C482        C  0.59937776  0.42021580  0.50890443    -0.12200
C483        C  0.56961744  0.39607908  0.01883297     0.01900
C484        C  0.56679186  0.37014347  0.02416604    -0.00400
C485        C  0.59089494  0.36883788  0.02214921    -0.12200
C486        C  0.61629681  0.39135491  0.01298132     0.01800
H487        H  0.60013138  0.43936378  0.50546515     0.14800
H488        H  0.59006643  0.34981736  0.02706435     0.14800
C489        C  0.63822554  0.38631339  0.00668644     0.36400
C490        C  0.55090322  0.40118318  0.51803360     0.36300
N491        N  0.65559090  0.38197438  0.00154147    -0.43900
N492        N  0.53334682  0.40577576  0.51971499    -0.43900
C493        C  0.50725237  0.21803111  0.01131985    -0.00400
C494        C  0.52451818  0.23719697  0.03334960    -0.12200
C495        C  0.52435230  0.26115404  0.03894606     0.01900
C496        C  0.50579645  0.26654619  0.02315499    -0.00400
C497        C  0.48605180  0.24578278  0.00400026    -0.12200
C498        C  0.48619878  0.22150226  0.99864909     0.01800
H499        H  0.53833297  0.23384632  0.04690876     0.14800
H500        H  0.47027185  0.24809026  0.99320294     0.14800
C501        C  0.46981746  0.19963440  0.48057707     0.36400
C502        C  0.54371570  0.27983555  0.06144595     0.36300
N503        N  0.45267323  0.18234211  0.46580034    -0.43900
N504        N  0.55902900  0.29465825  0.07961366    -0.43900
C505        C  0.61659998  0.17421306  0.02219710    -0.00400
C506        C  0.61879150  0.19997469  0.02052648    -0.12200
C507        C  0.59705981  0.20266585  0.01014219     0.01900
C508        C  0.57467673  0.17689650  0.50840342    -0.00400
C509        C  0.56867468  0.15320276  0.00589501    -0.12200
C510        C  0.59101413  0.15059297  0.01423605     0.01800
H511        H  0.63786772  0.21853401  0.02675219     0.14800
H512        H  0.55283253  0.13268007  0.50418940     0.14800
C513        C  0.58664449  0.12332124  0.01313662     0.36400
C514        C  0.60312854  0.23014351  0.00377793     0.36300
N515        N  0.58229774  0.10111897  0.01217554    -0.43900
N516        N  0.60830095  0.25223568  0.99854646    -0.43900
C517        C  0.81057908  0.42199430  0.02953115    -0.00400
C518        C  0.83531750  0.42353289  0.02173685    -0.12200
C519        C  0.83627144  0.40083454  0.51085708     0.01900
C520        C  0.81097398  0.37508929  0.50875802    -0.00400
C521        C  0.78597295  0.37350449  0.01614807    -0.12200
C522        C  0.78571897  0.39628169  0.02745263     0.01800
H523        H  0.85461761  0.44311767  0.02270230     0.14800
H524        H  0.76628038  0.35464896  0.01309993     0.14800
C525        C  0.75971225  0.39201609  0.03820323     0.36400
C526        C  0.86287523  0.40446906  0.50456115     0.36300
N527        N  0.73884965  0.38845765  0.04687757    -0.43900
N528        N  0.88472489  0.40860482  0.49951511    -0.43900
C529        C  0.76686861  0.26976483  0.01207190    -0.00400
C530        C  0.74867027  0.26744655  0.03521618    -0.12200
C531        C  0.72506356  0.24239062  0.04224833     0.01900
C532        C  0.71925611  0.21800480  0.02689186    -0.00400
C533        C  0.73912320  0.21965311  0.00649287    -0.12200
C534        C  0.76283025  0.24501296  0.99938542     0.01800
H535        H  0.75245401  0.28493248  0.04854799     0.14800
H536        H  0.73628928  0.20145686  0.99543419     0.14800
C537        C  0.78246182  0.24490511  0.97859129     0.36400
C538        C  0.70689248  0.24270783  0.06517826     0.36300
N539        N  0.80223826  0.24540427  0.46666766    -0.43900
N540        N  0.69246478  0.24296846  0.08360575    -0.43900
C541        C  0.64732784  0.50197958  0.26226790    -0.00400
C542        C  0.64231329  0.51890331  0.28089344    -0.12200
C543        C  0.62602308  0.52925038  0.27047623     0.01900
C544        C  0.61356117  0.52171243  0.24133668    -0.00400
C545        C  0.61942495  0.50553511  0.22245506    -0.12200
C546        C  0.63640645  0.49601451  0.23246152     0.01800
H547        H  0.65045792  0.52335835  0.30391398     0.14800
H548        H  0.61017863  0.49977143  0.19997317     0.14800
C549        C  0.64125758  0.47904828  0.21217696     0.36400
C550        C  0.62098893  0.54603643  0.29084042     0.36300
N551        N  0.64536036  0.46565460  0.19583711    -0.43900
N552        N  0.61698468  0.55957691  0.30706926    -0.43900
C553        C  0.65689319  0.46017943  0.35364168    -0.00400
C554        C  0.65081131  0.47835523  0.36802272    -0.12200
C555        C  0.65209707  0.48096877  0.39992693     0.01900
C556        C  0.65995917  0.46546666  0.41761390    -0.00400
C557        C  0.66302208  0.44522832  0.40331314    -0.12200
C558        C  0.66122029  0.44222870  0.37169730     0.01800
H559        H  0.64678254  0.49171766  0.35430165     0.14800
H560        H  0.66807798  0.43251723  0.41687129     0.14800
C561        C  0.66458605  0.42102325  0.35824635     0.36400
C562        C  0.64662868  0.50060808  0.41357631     0.36300
N563        N  0.66727874  0.40407229  0.34739269    -0.43900
N564        N  0.64168141  0.51621167  0.42390233    -0.43900
C565        C  0.83058885  0.47960058  0.11272100    -0.00400
C566        C  0.82102789  0.45385736  0.12609484    -0.12200
C567        C  0.81988001  0.45101118  0.15781822     0.01900
C568        C  0.83036593  0.47452931  0.17642772    -0.00400
C569        C  0.84205543  0.50052850  0.16289792    -0.12200
C570        C  0.84138317  0.50315223  0.13131751     0.01800
H571        H  0.81180201  0.43564304  0.11183761     0.14800
H572        H  0.84912655  0.51849626  0.17722295     0.14800
C573        C  0.84955321  0.52977147  0.11883559     0.36400
C574        C  0.80427524  0.42367710  0.17048292     0.36300
N575        N  0.85591867  0.55108799  0.10891183    -0.43900
N576        N  0.79116763  0.40168017  0.18028401    -0.43900
C577        C  0.76733540  0.47227658  0.25533262    -0.00400
C578        C  0.76689942  0.49271155  0.27279993    -0.12200
C579        C  0.74228057  0.49252527  0.27730543     0.01900
C580        C  0.71694537  0.47116464  0.26490143    -0.00400
C581        C  0.71811312  0.45236361  0.24522076    -0.12200
C582        C  0.74240969  0.45234869  0.24083727     0.01800
H583        H  0.78559200  0.50902542  0.28308033     0.14800
H584        H  0.70022495  0.43716986  0.23287257     0.14800
C585        C  0.74075985  0.43107906  0.22129012     0.36400
C586        C  0.74361533  0.51437426  0.29532918     0.36300
N587        N  0.73935405  0.41398733  0.20577394    -0.43900
N588        N  0.74465608  0.53184793  0.30980066    -0.43900
C589        C  0.65680812  0.15345850  0.16878745    -0.00400
C590        C  0.63626121  0.15549682  0.15346012    -0.12200
C591        C  0.63541125  0.15535450  0.12152456     0.01900
C592        C  0.65510379  0.15262288  0.10490576    -0.00400
C593        C  0.67311294  0.14687893  0.12042683    -0.12200
C594        C  0.67436865  0.14761134  0.15214292     0.01800
H595        H  0.62257107  0.15973373  0.16629070     0.14800
H596        H  0.68797535  0.14432127  0.10764807     0.14800
C597        C  0.69525515  0.14438623  0.16691938     0.36400
C598        C  0.61624051  0.16102621  0.10661266     0.36300
N599        N  0.71220268  0.14207132  0.17863393    -0.43900
N600        N  0.60077128  0.16561147  0.09497114    -0.43900
C601        C  0.81821601  0.32742757  0.42226967    -0.00400
C602        C  0.82736706  0.31143606  0.40837205    -0.12200
C603        C  0.82914581  0.31062446  0.37663502     0.01900
C604        C  0.82090830  0.32534685  0.35826658    -0.00400
C605        C  0.81341381  0.34269663  0.37216871    -0.12200
C606        C  0.81216148  0.34395467  0.40403586     0.01800
H607        H  0.83224000  0.29883430  0.42235791     0.14800
H608        H  0.80706309  0.35406640  0.35822263     0.14800
C609        C  0.80262911  0.36063840  0.41747098     0.36400
C610        C  0.83897312  0.29417153  0.36326458     0.36300
N611        N  0.79494497  0.37393063  0.42836657    -0.43900
N612        N  0.84714814  0.28127258  0.35244924    -0.43900
C613        C  0.81574269  0.36963799  0.27462586    -0.00400
C614        C  0.80369814  0.37905527  0.29509186    -0.12200
C615        C  0.80287968  0.40265797  0.28890390     0.01900
C616        C  0.81382479  0.41706551  0.26113332    -0.00400
C617        C  0.82673977  0.40796199  0.24118942    -0.12200
C618        C  0.82750568  0.38432285  0.24752315     0.01800
H619        H  0.79414386  0.36745449  0.31563658     0.14800
H620        H  0.83545263  0.41870980  0.21996890     0.14800
C621        C  0.83942322  0.37508495  0.22511575     0.36400
C622        C  0.79096447  0.41144803  0.31188598     0.36300
N623        N  0.84900338  0.36831024  0.20645480    -0.43900
N624        N  0.78110621  0.41808729  0.33039624    -0.43900
C625        C  0.76583822  0.26538745  0.26934321    -0.00400
C626        C  0.74754331  0.26497661  0.24742329    -0.12200
C627        C  0.72350642  0.24078994  0.23925196     0.01900
C628        C  0.71714784  0.21534382  0.25216720    -0.00400
C629        C  0.73672448  0.21517478  0.27172987    -0.12200
C630        C  0.76093075  0.23971363  0.28001688     0.01800
H631        H  0.75170356  0.28332721  0.23564673     0.14800
H632        H  0.73359715  0.19614406  0.28068091     0.14800
C633        C  0.78054205  0.23772706  0.29912170     0.36400
C634        C  0.70547518  0.24307124  0.21767869     0.36300
N635        N  0.79622196  0.23591164  0.31424548    -0.43900
N636        N  0.69097356  0.24492102  0.20060941    -0.43900
C637        C  0.47070735  0.33592019  0.26260368    -0.00400
C638        C  0.47475380  0.34296654  0.29355129    -0.12200
C639        C  0.46673047  0.36045376  0.30576790     0.01900
C640        C  0.45472947  0.37143228  0.28676313    -0.00400
C641        C  0.44816792  0.36211713  0.25657662    -0.12200
C642        C  0.45609053  0.34453941  0.24438414     0.01800
H643        H  0.48552960  0.33600556  0.30782841     0.14800
H644        H  0.43828346  0.36982425  0.24194662     0.14800
C645        C  0.44927385  0.33595987  0.21304481     0.36400
C646        C  0.47090998  0.36671990  0.33786272     0.36300
N647        N  0.44339134  0.32908591  0.18798204    -0.43900
N648        N  0.47389783  0.37142492  0.36368480    -0.43900
C649        C  0.50010559  0.32512547  0.10281301    -0.00400
C650        C  0.47685245  0.30368143  0.11747402    -0.12200
C651        C  0.47520728  0.30229125  0.14912420     0.01900
C652        C  0.49696408  0.32291400  0.16670085    -0.00400
C653        C  0.51792650  0.34651472  0.15211115    -0.12200
C654        C  0.51989000  0.34766348  0.12021577     0.01800
H655        H  0.46087436  0.28685486  0.10416048     0.14800
H656        H  0.53399263  0.36303165  0.16556078     0.14800
C657        C  0.54359738  0.37092128  0.10634286     0.36400
C658        C  0.45161325  0.27883367  0.16300752     0.36300
N659        N  0.56260216  0.38973843  0.09542326    -0.43900
N660        N  0.43283709  0.26002734  0.17425355    -0.43900
C661        C  0.55964349  0.36887823  0.24628337    -0.00400
C662        C  0.56316369  0.37882331  0.27612860    -0.12200
C663        C  0.58867410  0.40068342  0.28605697     0.01900
C664        C  0.61082938  0.41419215  0.26532604    -0.00400
C665        C  0.60699011  0.40428622  0.23519758    -0.12200
C666        C  0.58199138  0.38130796  0.22588716     0.01800
H667        H  0.54640531  0.36817505  0.29231824     0.14800
H668        H  0.62388230  0.41383713  0.21909097     0.14800
C669        C  0.58063264  0.36950782  0.19635646     0.36400
C670        C  0.59224156  0.40634110  0.31829247     0.36300
N671        N  0.58000824  0.35994441  0.17289647    -0.43900
N672        N  0.59481700  0.41018755  0.34428992    -0.43900
C673        C  0.52789925  0.17479858  0.42120581    -0.00400
C674        C  0.54545198  0.19980515  0.40627938    -0.12200
C675        C  0.54558873  0.20180284  0.37455372     0.01900
C676        C  0.52775021  0.17843387  0.35693404    -0.00400
C677        C  0.51229420  0.15285948  0.37154692    -0.12200
C678        C  0.51231827  0.15084006  0.40348350     0.01800
H679        H  0.55838322  0.21818235  0.41960706     0.14800
H680        H  0.49905771  0.13465193  0.35813497     0.14800
C681        C  0.49517409  0.12422804  0.41726924     0.36400
C682        C  0.56411077  0.22816340  0.36072297     0.36300
N683        N  0.48161582  0.10259975  0.42780916    -0.43900
N684        N  0.57893878  0.24930524  0.34968209    -0.43900
C685        C  0.56991320  0.17902517  0.26645627    -0.00400
C686        C  0.56618501  0.15283816  0.26272823    -0.12200
C687        C  0.58815024  0.14952411  0.25437588     0.01900
C688        C  0.61451830  0.17290169  0.24819940    -0.00400
C689        C  0.61747942  0.19899550  0.24997827    -0.12200
C690        C  0.59616534  0.20233268  0.26025579     0.01800
H691        H  0.54605119  0.13472961  0.26683359     0.14800
H692        H  0.63699696  0.21730509  0.24433943     0.14800
C693        C  0.60273583  0.23004767  0.26621323     0.36400
C694        C  0.58275868  0.12186972  0.25393324     0.36300
N695        N  0.60806184  0.25225571  0.27099192    -0.43900
N696        N  0.57775775  0.09942588  0.25362921    -0.43900
C697        C  0.50860147  0.22078610  0.26597426    -0.00400
C698        C  0.52463176  0.23911785  0.24262678    -0.12200
C699        C  0.52289673  0.26189202  0.23518123     0.01900
C700        C  0.50364622  0.26675639  0.25002623    -0.00400
C701        C  0.48557094  0.24707601  0.27127832    -0.12200
C702        C  0.48772415  0.22426133  0.27906706     0.01800
H703        H  0.53891034  0.23635005  0.22942586     0.14800
H704        H  0.46985400  0.24932922  0.28225653     0.14800
C705        C  0.46831236  0.20485840  0.30087111     0.36400
C706        C  0.54205947  0.28039546  0.21242150     0.36300
N707        N  0.45277386  0.18929306  0.31834719    -0.43900
N708        N  0.55750980  0.29523372  0.19438509    -0.43900
C709        C  0.61571198  0.05957214  0.49139853    -0.00400
C710        C  0.62413959  0.08247207  0.47248375    -0.12200
C711        C  0.64154224  0.10922328  0.48349421     0.01900
C712        C  0.64721829  0.11485664  0.01015843    -0.00400
C713        C  0.63914877  0.09293582  0.03033519    -0.12200
C714        C  0.62322348  0.06574381  0.02028350     0.01800
H715        H  0.61629115  0.07948825  0.44937663     0.14800
H716        H  0.64419527  0.09712022  0.05434051     0.14800
C717        C  0.61342680  0.04407052  0.04266740     0.36400
C718        C  0.64839694  0.13211551  0.46364974     0.36300
N719        N  0.60544211  0.02672249  0.06064391    -0.43900
N720        N  0.65394586  0.15050785  0.44778934    -0.43900
C721        C  0.47264081  0.06867092  0.03951767    -0.00400
C722        C  0.45640141  0.06927967  0.51640023    -0.12200
C723        C  0.46388099  0.09538398  0.50498680     0.01900
C724        C  0.48622852  0.12024448  0.01519534    -0.00400
C725        C  0.50346120  0.11839099  0.03667579    -0.12200
C726        C  0.49706779  0.09301809  0.04875819     0.01800
H727        H  0.43755391  0.05129552  0.50842142     0.14800
H728        H  0.52235841  0.13686264  0.04360196     0.14800
C729        C  0.51600720  0.09279451  0.07062175     0.36400
C730        C  0.44583199  0.09786013  0.48385440     0.36300
N731        N  0.53118016  0.09271016  0.08819352    -0.43900
N732        N  0.43148058  0.10014781  0.46698014    -0.43900
C733        C  0.61087075  0.05960652  0.28759387    -0.00400
C734        C  0.61723308  0.08242786  0.30574261    -0.12200
C735        C  0.63342883  0.10907638  0.29443134     0.01900
C736        C  0.64324888  0.11314142  0.26431272    -0.00400
C737        C  0.63818928  0.09060543  0.24655740    -0.12200
C738        C  0.62249100  0.06386400  0.25811296     0.01800
H739        H  0.60859489  0.07941087  0.32844741     0.14800
H740        H  0.64594866  0.09390501  0.22340097     0.14800
C741        C  0.61748615  0.04133968  0.23858920     0.36400
C742        C  0.63806814  0.13179688  0.31339706     0.36300
N743        N  0.61372364  0.02340434  0.22288437    -0.43900
N744        N  0.64179494  0.15001871  0.32856270    -0.43900
C745        C  0.46650337  0.06814164  0.24763310    -0.00400
C746        C  0.47864738  0.09074755  0.22777471    -0.12200
C747        C  0.48704213  0.11719780  0.23809388     0.01900
C748        C  0.48339072  0.12150020  0.26896320    -0.00400
C749        C  0.47058679  0.09891660  0.28872661    -0.12200
C750        C  0.46186996  0.07230594  0.27831141     0.01800
H751        H  0.48242608  0.08788922  0.20424571     0.14800
H752        H  0.46827496  0.10223159  0.31258535     0.14800
C753        C  0.45011659  0.05011411  0.30012893     0.36400
C754        C  0.50128877  0.13987155  0.21707472     0.36300
N755        N  0.44075198  0.03239604  0.31771462    -0.43900
N756        N  0.51282489  0.15813298  0.20038478    -0.43900
C757        C  0.51620245  0.85612601  0.26369371    -0.00400
C758        C  0.51092557  0.85832138  0.29449433    -0.12200
C759        C  0.51789545  0.88378424  0.30701247     0.01900
C760        C  0.53146388  0.90766592  0.28884387    -0.00400
C761        C  0.53802979  0.90562157  0.25861364    -0.12200
C762        C  0.52990402  0.88010843  0.24571941     0.01800
H763        H  0.50007397  0.83991878  0.30834421     0.14800
H764        H  0.54820376  0.92389799  0.24446791     0.14800
C765        C  0.53511724  0.87923889  0.21372381     0.36400
C766        C  0.51084974  0.88484144  0.33836791     0.36300
N767        N  0.53927740  0.87923364  0.18794157    -0.43900
N768        N  0.50514323  0.88557645  0.36350523    -0.43900
C769        C  0.53906322  0.59954904  0.23734235    -0.00400
C770        C  0.52237884  0.60516891  0.21873054    -0.12200
C771        C  0.51396981  0.62317028  0.22841423     0.01900
C772        C  0.52155215  0.63521403  0.25757086    -0.00400
C773        C  0.53887099  0.63037962  0.27574610    -0.12200
C774        C  0.54810874  0.61319622  0.26571484     0.01800
H775        H  0.51545405  0.59507416  0.19680769     0.14800
H776        H  0.54450200  0.63942149  0.29831237     0.14800
C777        C  0.56552645  0.60876925  0.28587745     0.36400
C778        C  0.49663030  0.62808316  0.20865659     0.36300
N779        N  0.57961072  0.60536675  0.30201317    -0.43900
N780        N  0.48290549  0.63221710  0.19276710    -0.43900
C781        C  0.49790290  0.71081128  0.27516886    -0.00400
C782        C  0.51740086  0.73014196  0.25458866    -0.12200
C783        C  0.51729714  0.75401957  0.24654116     0.01900
C784        C  0.49637127  0.75831347  0.25772224    -0.00400
C785        C  0.47991535  0.74126327  0.28164174    -0.12200
C786        C  0.48021359  0.71781509  0.29011467     0.01800
H787        H  0.53293466  0.72702713  0.24463906     0.14800
H788        H  0.46637236  0.74595611  0.29394421     0.14800
C789        C  0.46159837  0.70114708  0.31417331     0.36400
C790        C  0.53971879  0.77418163  0.22797101     0.36300
N791        N  0.44685347  0.68804696  0.33365108    -0.43900
N792        N  0.55796923  0.79030019  0.21334516    -0.43900
C793        C  0.38915140  0.45549651  0.28726300    -0.00400
C794        C  0.36872731  0.43805508  0.26618162    -0.12200
C795        C  0.35125385  0.44564642  0.25260364     0.01900
C796        C  0.35464939  0.47130148  0.25945581    -0.00400
C797        C  0.37300106  0.48738788  0.28259206    -0.12200
C798        C  0.39009827  0.47971801  0.29664782     0.01800
H799        H  0.36702238  0.41893844  0.25944472     0.14800
H800        H  0.37464818  0.50655792  0.28900144     0.14800
C801        C  0.40848986  0.49732582  0.32034213     0.36400
C802        C  0.33025876  0.42709411  0.23152767     0.36300
N803        N  0.42306757  0.51144809  0.33942106    -0.43900
N804        N  0.31320740  0.41220414  0.21480800    -0.43900
C805        C  0.38647978  0.55828514  0.25138548    -0.00400
C806        C  0.38495994  0.58095213  0.26172716    -0.12200
C807        C  0.40802101  0.60490426  0.27300121     0.01900
C808        C  0.43425922  0.60786539  0.27225426    -0.00400
C809        C  0.43624158  0.58583536  0.26169134    -0.12200
C810        C  0.41305212  0.56119389  0.25204582     0.01800
H811        H  0.36571618  0.58048521  0.26121657     0.14800
H812        H  0.45628711  0.58783394  0.26065870     0.14800
C813        C  0.41850865  0.54000692  0.24384341     0.36400
C814        C  0.40356457  0.62535086  0.28652703     0.36300
N815        N  0.42416615  0.52385168  0.23738810    -0.43900
N816        N  0.39946606  0.64136442  0.29741403    -0.43900
C817        C  0.28143800  0.49555055  0.24544361    -0.00400
C818        C  0.26286500  0.49535858  0.22381498    -0.12200
C819        C  0.23896880  0.49506388  0.23224829     0.01900
C820        C  0.23215116  0.49445863  0.26334673    -0.00400
C821        C  0.24961047  0.49262750  0.28498900    -0.12200
C822        C  0.27401974  0.49380696  0.27652486     0.01800
H823        H  0.26702292  0.49686061  0.19953323     0.14800
H824        H  0.24545761  0.49131815  0.30901688     0.14800
C825        C  0.29178740  0.49463065  0.30067003     0.36400
C826        C  0.22295497  0.49755779  0.20822103     0.36300
N827        N  0.30606110  0.49546416  0.32002891    -0.43900
N828        N  0.21065222  0.50013923  0.18884412    -0.43900
C829        C  0.19453406  0.55716191  0.25898899    -0.00400
C830        C  0.20626444  0.57907064  0.27952740    -0.12200
C831        C  0.20742146  0.60365653  0.27290285     0.01900
C832        C  0.19669086  0.60664187  0.24490358    -0.00400
C833        C  0.18486508  0.58436756  0.22443231    -0.12200
C834        C  0.18359128  0.55973795  0.23133340     0.01800
H835        H  0.21423150  0.57678882  0.30106516     0.14800
H836        H  0.17642833  0.58604020  0.20297999     0.14800
C837        C  0.17049000  0.53717243  0.21004542     0.36400
C838        C  0.21877992  0.62470970  0.29603537     0.36300
N839        N  0.15988987  0.51903645  0.19305731    -0.43900
N840        N  0.22824279  0.64138712  0.31479903    -0.43900
C841        C  0.35914916  0.85816605  0.24869681    -0.00400
C842        C  0.35180007  0.87742848  0.25629906    -0.12200
C843        C  0.36824060  0.90498484  0.24694243     0.01900
C844        C  0.39275944  0.91348214  0.23032517    -0.00400
C845        C  0.39850108  0.89349258  0.22073007    -0.12200
C846        C  0.38191129  0.86612152  0.22949661     0.01800
H847        H  0.33392523  0.87120843  0.27059643     0.14800
H848        H  0.41657828  0.89934877  0.20691797     0.14800
C849        C  0.38872090  0.84666734  0.21805852     0.36400
C850        C  0.35992278  0.92403958  0.25553085     0.36300
N851        N  0.39448250  0.83158057  0.20796321    -0.43900
N852        N  0.35304765  0.93921272  0.26220540    -0.43900
C853        C  0.38432708  0.79572002  0.26599954    -0.00400
C854        C  0.38289316  0.77852376  0.24189872    -0.12200
C855        C  0.40589895  0.77708254  0.23323224     0.01900
C856        C  0.43141877  0.79394029  0.24767212    -0.00400
C857        C  0.43305878  0.81067303  0.27183261    -0.12200
C858        C  0.40986940  0.81115129  0.28172195     0.01800
H859        H  0.36398447  0.76650379  0.22908693     0.14800
H860        H  0.45249211  0.82281569  0.28378148     0.14800
C861        C  0.41320204  0.82650493  0.30914295     0.36400
C862        C  0.40287470  0.75822372  0.20945708     0.36300
N863        N  0.41662064  0.83908364  0.33113876    -0.43900
N864        N  0.40042141  0.74293378  0.19059306    -0.43900
C865        C  0.28162573  0.75882093  0.26490930    -0.00400
C866        C  0.26289733  0.74071546  0.28695182    -0.12200
C867        C  0.23889557  0.71597235  0.27892078     0.01900
C868        C  0.23199667  0.70859394  0.24794251    -0.00400
C869        C  0.25073305  0.72692463  0.22591484    -0.12200
C870        C  0.27502074  0.75131608  0.23393730     0.01800
H871        H  0.26736868  0.74437875  0.31089443     0.14800
H872        H  0.24815553  0.72175828  0.20206901     0.14800
C873        C  0.29379571  0.76715605  0.20959083     0.36400
C874        C  0.22292575  0.69799104  0.30357503     0.36300
N875        N  0.30886485  0.77980727  0.19013465    -0.43900
N876        N  0.21073407  0.68427673  0.32406587    -0.43900
C877        C  0.53679974  0.90647118  0.49012234    -0.00400
C878        C  0.52266242  0.88439130  0.46986568    -0.12200
C879        C  0.51420191  0.85752464  0.47874531     0.01900
C880        C  0.51553152  0.85168378  0.01197249    -0.00400
C881        C  0.52991853  0.87353243  0.03245283    -0.12200
C882        C  0.53943696  0.90072699  0.02357776     0.01800
H883        H  0.51780002  0.88809069  0.44712128     0.14800
H884        H  0.53300492  0.86922342  0.05570738     0.14800
C885        C  0.55338716  0.92224766  0.04592454     0.36400
C886        C  0.49964334  0.83588134  0.45674178     0.36300
N887        N  0.56459302  0.93943696  0.06391795    -0.43900
N888        N  0.48840443  0.81935706  0.43811361    -0.43900
C889        C  0.48489222  0.80742366  0.10352024    -0.00400
C890        C  0.51113325  0.81927386  0.11696452    -0.12200
C891        C  0.51416376  0.82028454  0.14865223     0.01900
C892        C  0.49081303  0.81093447  0.16742655    -0.00400
C893        C  0.46502934  0.80160829  0.15403026    -0.12200
C894        C  0.46165798  0.79867916  0.12239084     0.01800
H895        H  0.52901494  0.82553453  0.10263640     0.14800
H896        H  0.44700814  0.79390937  0.16845966     0.14800
C897        C  0.43386186  0.78285207  0.11083966     0.36400
C898        C  0.54115612  0.82963240  0.16120452     0.36300
N899        N  0.41117521  0.76934748  0.10291018    -0.43900
N900        N  0.56292647  0.83724687  0.17094705    -0.43900
C901        C  0.52464866  0.63256823  0.01145202    -0.00400
C902        C  0.52982156  0.61562691  0.49184001    -0.12200
C903        C  0.54006531  0.59933299  0.50188610     0.01900
C904        C  0.54424405  0.59895456  0.03294642    -0.00400
C905        C  0.54038641  0.61566214  0.05315045    -0.12200
C906        C  0.53139752  0.63297800  0.04265595     0.01800
H907        H  0.52628804  0.61644198  0.46767497     0.14800
H908        H  0.54405293  0.61488182  0.07728816     0.14800
C909        C  0.52900228  0.65028701  0.06476971     0.36400
C910        C  0.54505259  0.58383841  0.47953882     0.36300
N911        N  0.52794407  0.66431277  0.08305284    -0.43900
N912        N  0.54902405  0.57149103  0.46151458    -0.43900
C913        C  0.49604787  0.64603645  0.35436701    -0.00400
C914        C  0.52055854  0.66282853  0.37051897    -0.12200
C915        C  0.52131011  0.66094827  0.40219688     0.01900
C916        C  0.49701308  0.64248315  0.41822354    -0.00400
C917        C  0.47360660  0.62331675  0.40190185    -0.12200
C918        C  0.47291764  0.62493637  0.37004591     0.01800
H919        H  0.53866556  0.67853559  0.35853440     0.14800
H920        H  0.45499441  0.60892141  0.41413219     0.14800
C921        C  0.44728329  0.60662320  0.35465998     0.36400
C922        C  0.54659883  0.67963606  0.41811966     0.36300
N923        N  0.42651662  0.59169248  0.34280949    -0.43900
N924        N  0.56673180  0.69457050  0.43106826    -0.43900
C925        C  0.49692139  0.70504403  0.00216727    -0.00400
C926        C  0.50686362  0.72646930  0.48127562    -0.12200
C927        C  0.50056360  0.74887330  0.98927744     0.01900
C928        C  0.49453238  0.75238112  0.01962656    -0.00400
C929        C  0.49015796  0.73181904  0.04084927    -0.12200
C930        C  0.49186379  0.70901328  0.03272674     0.01800
H931        H  0.51239150  0.72535516  0.45819363     0.14800
H932        H  0.48356879  0.73207067  0.06379906     0.14800
C933        C  0.48640700  0.68912318  0.05630551     0.36400
C934        C  0.51110566  0.76895107  0.46455680     0.36300
N935        N  0.48166153  0.67339413  0.07554124    -0.43900
N936        N  0.51505713  0.78380282  0.44456578    -0.43900
C937        C  0.35126372  0.46699947  0.00588981    -0.00400
C938        C  0.36705872  0.47964060  0.97983749    -0.12200
C939        C  0.38577356  0.47273015  0.96891909     0.01900
C940        C  0.39004724  0.45391779  0.48350844    -0.00400
C941        C  0.37467262  0.44311654  0.51037827    -0.12200
C942        C  0.35572036  0.45041483  0.51970729     0.01800
H943        H  0.36568331  0.49593141  0.96881302     0.14800
H944        H  0.37826094  0.42982404  0.52478464     0.14800
C945        C  0.34087432  0.43932009  0.54783030     0.36400
C946        C  0.40132677  0.48642047  0.94183197     0.36300
N947        N  0.32877418  0.43015162  0.57022962    -0.43900
N948        N  0.41364532  0.49730821  0.92002531    -0.43900
C949        C  0.34695837  0.50915634  0.09843163    -0.00400
C950        C  0.35200215  0.49073976  0.11399745    -0.12200
C951        C  0.35369017  0.49142681  0.14592598     0.01900
C952        C  0.34963673  0.51033384  0.16222245    -0.00400
C953        C  0.34820446  0.53087833  0.14629156    -0.12200
C954        C  0.34706499  0.53055283  0.11458120     0.01800
H955        H  0.35277123  0.47477946  0.10145498     0.14800
H956        H  0.34587761  0.54597373  0.15876195     0.14800
C957        C  0.34433231  0.55138201  0.09907985     0.36400
C958        C  0.35821517  0.47179741  0.16133513     0.36300
N959        N  0.34218910  0.56800202  0.08646020    -0.43900
N960        N  0.36254124  0.45633166  0.17327074    -0.43900
C961        C  0.38241912  0.55467812  0.01174541    -0.00400
C962        C  0.40277514  0.56726768  0.03438099    -0.12200
C963        C  0.42833171  0.59082300  0.02807735     0.01900
C964        C  0.43385974  0.60238499  0.99868181    -0.00400
C965        C  0.41274557  0.59126205  0.47445207    -0.12200
C966        C  0.38654411  0.56816521  0.48024680     0.01800
H967        H  0.39863336  0.55882656  0.05724486     0.14800
H968        H  0.41769411  0.60026765  0.45186121     0.14800
C969        C  0.36739420  0.55633531  0.45519987     0.36400
C970        C  0.44851713  0.60259638  0.05218972     0.36300
N971        N  0.35226278  0.54713385  0.43487460    -0.43900
N972        N  0.46439285  0.61159249  0.07185426    -0.43900
C973        C  0.17506255  0.50826465  0.40978893    -0.00400
C974        C  0.19901062  0.52915347  0.39564640    -0.12200
C975        C  0.20150654  0.53018048  0.36406178     0.01900
C976        C  0.17942321  0.51041418  0.34611498    -0.00400
C977        C  0.15426256  0.49167100  0.36007272    -0.12200
C978        C  0.15194363  0.49043302  0.39191545     0.01800
H979        H  0.21677362  0.54304557  0.40945190     0.14800
H980        H  0.13734405  0.47633765  0.34643849     0.14800
C981        C  0.12665696  0.46917456  0.40561322     0.36400
C982        C  0.22785003  0.54994027  0.35079972     0.36300
N983        N  0.10621271  0.45210929  0.41631544    -0.43900
N984        N  0.24902697  0.56544583  0.34013510    -0.43900
C985        C  0.27816931  0.49368906  0.01549994    -0.00400
C986        C  0.26335763  0.49998493  0.03649565    -0.12200
C987        C  0.23974954  0.50043778  0.02820825     0.01900
C988        C  0.23046394  0.49589497  0.99764890    -0.00400
C989        C  0.24421807  0.49024041  0.47093856    -0.12200
C990        C  0.26818108  0.48797300  0.98516223     0.01800
H991        H  0.27057469  0.50618973  0.05948282     0.14800
H992        H  0.24030380  0.48950302  0.44696870     0.14800
C993        C  0.28522821  0.49003142  0.45511516     0.36400
C994        C  0.22605395  0.50655850  0.05183292     0.36300
N995        N  0.29868855  0.48958072  0.43562202    -0.43900
N996        N  0.21533930  0.51148292  0.07102358    -0.43900
C997        C  0.17285399  0.64379137  0.16374581    -0.00400
C998        C  0.18109694  0.62801754  0.14762313    -0.12200
C999        C  0.18266654  0.62921363  0.11570271     0.01900
C1000       C  0.17656085  0.64694284  0.09988801    -0.00400
C1001       C  0.16607214  0.66076605  0.11584598    -0.12200
C1002       C  0.16354321  0.65878085  0.14750008     0.01800
H1003       H  0.18845192  0.61660145  0.15995770     0.14800
H1004       H  0.16108805  0.67417170  0.10366947     0.14800
C1005       C  0.15277342  0.67351570  0.16307784     0.36400
C1006       C  0.19266714  0.61388094  0.09995473     0.36300
N1007       N  0.14399953  0.68517987  0.17559019    -0.43900
N1008       N  0.20058432  0.60145420  0.08743743    -0.43900
C1009       C  0.19221018  0.55978128  0.99583938    -0.00400
C1010       C  0.16694856  0.55772803  0.00221746    -0.12200
C1011       C  0.16543572  0.58068804  0.01042326     0.01900
C1012       C  0.18993396  0.60683346  0.01396776    -0.00400
C1013       C  0.21526233  0.60860182  0.00793025    -0.12200
C1014       C  0.21649886  0.58598028  0.99774287     0.01800
H1015       H  0.14793130  0.53794280  0.00091441     0.14800
H1016       H  0.23460012  0.62783294  0.01079802     0.14800
C1017       C  0.24175664  0.58757179  0.48697293     0.36400
C1018       C  0.13808295  0.57608623  0.01379595     0.36300
N1019       N  0.26265599  0.59134784  0.47814536    -0.43900
N1020       N  0.11575140  0.57138401  0.01650328    -0.43900
C1021       C  0.36927833  0.85858093  0.00947343    -0.00400
C1022       C  0.35649675  0.87310972  0.01864732    -0.12200
C1023       C  0.37181398  0.89967605  0.03150802     0.01900
C1024       C  0.40044587  0.91207011  0.03618035    -0.00400
C1025       C  0.41311278  0.89766523  0.02751935    -0.12200
C1026       C  0.39830961  0.87170055  0.01398144     0.01800
H1027       H  0.33451369  0.86398798  0.01523104     0.14800
H1028       H  0.43524758  0.90724511  0.03055130     0.14800
C1029       C  0.41455594  0.86012035  0.00502223     0.36400
C1030       C  0.35766001  0.91348437  0.04045543     0.36300
N1031       N  0.42888985  0.85237731  0.99756873    -0.43900
N1032       N  0.34639967  0.92462585  0.04775470    -0.43900
C1033       C  0.35198883  0.81290746  0.41011906    -0.00400
C1034       C  0.35017861  0.83431412  0.39680999    -0.12200
C1035       C  0.34929474  0.83634490  0.36499001     0.01900
C1036       C  0.35065967  0.81698301  0.34638795    -0.00400
C1037       C  0.35481730  0.79713210  0.35970695    -0.12200
C1038       C  0.35509815  0.79467486  0.39127867     0.01800
H1039       H  0.34746679  0.84816618  0.41123319     0.14800
H1040       H  0.35539734  0.78195222  0.34533735     0.14800
C1041       C  0.35551960  0.77137049  0.40335182     0.36400
C1042       C  0.34496034  0.85704149  0.35197185     0.36300
N1043       N  0.35541118  0.75214669  0.41200608    -0.43900
N1044       N  0.34150449  0.87365614  0.34152998    -0.43900
C1045       C  0.42802122  0.78650098  0.01469367    -0.00400
C1046       C  0.41440672  0.79457437  0.03491232    -0.12200
C1047       C  0.39100397  0.79504293  0.02597487     0.01900
C1048       C  0.38646589  0.78811331  0.49371116    -0.00400
C1049       C  0.40023560  0.78026391  0.47365408    -0.12200
C1050       C  0.42249573  0.77809912  0.48355467     0.01800
H1051       H  0.42212113  0.80076949  0.05779702     0.14800
H1052       H  0.39367470  0.77581161  0.45021994     0.14800
C1053       C  0.43474610  0.76859903  0.46180106     0.36400
C1054       C  0.37702215  0.80207463  0.04830516     0.36300
N1055       N  0.44406937  0.76051374  0.44428241    -0.43900
N1056       N  0.36574417  0.80761384  0.06619438    -0.43900
C1057       C  0.28240667  0.75948484  0.99428307    -0.00400
C1058       C  0.26732746  0.76000982  0.01953153    -0.12200
C1059       C  0.24220772  0.73637695  0.02847529     0.01900
C1060       C  0.23198835  0.71108122  0.01269627    -0.00400
C1061       C  0.24891600  0.70944064  0.48544464    -0.12200
C1062       C  0.27422130  0.73187364  0.47658643     0.01800
H1063       H  0.27514486  0.77848831  0.03293698     0.14800
H1064       H  0.23971281  0.69133345  0.47111259     0.14800
C1065       C  0.28705982  0.72767979  0.45048498     0.36400
C1066       C  0.22679915  0.73934861  0.05270306     0.36300
N1067       N  0.29650203  0.72349455  0.42938532    -0.43900
N1068       N  0.21440265  0.74183934  0.07200934    -0.43900
C1069       C  0.08207795  0.60149138  0.48120467    -0.00400
C1070       C  0.08104277  0.61187206  0.01236630    -0.12200
C1071       C  0.10746726  0.63026510  0.02392614     0.01900
C1072       C  0.13092726  0.63602480  0.00697642    -0.00400
C1073       C  0.13211846  0.62476733  0.47762306    -0.12200
C1074       C  0.10599542  0.60678727  0.46525951     0.01800
H1075       H  0.06310941  0.60657849  0.02616661     0.14800
H1076       H  0.15036606  0.62788018  0.46594095     0.14800
C1077       C  0.10443582  0.59316310  0.43695292     0.36400
C1078       C  0.10996485  0.64285065  0.05319534     0.36300
N1079       N  0.10336460  0.58216308  0.41438707    -0.43900
N1080       N  0.11156099  0.65309182  0.07646946    -0.43900
C1081       C  0.92881953  0.52513280  0.48898863    -0.00400
C1082       C  0.92716539  0.53007425  0.51995331    -0.12200
C1083       C  0.89896776  0.52320140  0.03195362     0.01900
C1084       C  0.87399010  0.50688108  0.01611415    -0.00400
C1085       C  0.87464740  0.49761963  0.98668659    -0.12200
C1086       C  0.89967190  0.50362423  0.97342328     0.01800
H1087       H  0.94559853  0.53883796  0.53397254     0.14800
H1088       H  0.85541945  0.48454539  0.97466088     0.14800
C1089       C  0.89902529  0.49265515  0.94359715     0.36400
C1090       C  0.89971894  0.53241033  0.06268513     0.36300
N1091       N  0.89845083  0.48379179  0.91971102    -0.43900
N1092       N  0.90143194  0.54011749  0.08741174    -0.43900
C1093       C  0.92139868  0.37586523  0.03746289    -0.00400
C1094       C  0.91821501  0.36932110  0.50732461    -0.12200
C1095       C  0.89164323  0.35227669  0.49546574     0.01900
C1096       C  0.86763288  0.34308164  0.01372387    -0.00400
C1097       C  0.87178662  0.35558421  0.04227526    -0.12200
C1098       C  0.89839557  0.37231721  0.05398176     0.01800
H1099       H  0.93597616  0.37441706  0.49329873     0.14800
H1100       H  0.85427779  0.35359880  0.05459621     0.14800
C1101       C  0.90151089  0.38653552  0.08230887     0.36400
C1102       C  0.88872444  0.34167160  0.46498045     0.36300
N1103       N  0.90405571  0.39818788  0.10481938    -0.43900
N1104       N  0.88680612  0.33331097  0.44052161    -0.43900
C1105       C  0.13140010  0.47263855  0.00918924    -0.00400
C1106       C  0.10832751  0.45038786  0.99542339    -0.12200
C1107       C  0.08163652  0.44072727  0.00657045     0.01900
C1108       C  0.07785870  0.45314110  0.03254563    -0.00400
C1109       C  0.10129277  0.47446241  0.04722676    -0.12200
C1110       C  0.12783812  0.48424373  0.03581917     0.01800
H1111       H  0.10689460  0.43714682  0.47613481     0.14800
H1112       H  0.09886558  0.48412333  0.06726485     0.14800
C1113       C  0.15096735  0.50681932  0.05136659     0.36400
C1114       C  0.05860673  0.41943137  0.98959416     0.36300
N1115       N  0.16929037  0.52503952  0.06394110    -0.43900
N1116       N  0.04017567  0.40251059  0.97580168    -0.43900
C1117       C  0.13197972  0.62680110  0.25904447    -0.00400
C1118       C  0.10956032  0.61766918  0.23906931    -0.12200
C1119       C  0.08250833  0.59913674  0.24878410     0.01900
C1120       C  0.07755596  0.58946619  0.27917347    -0.00400
C1121       C  0.09998891  0.59889947  0.29917710    -0.12200
C1122       C  0.12700585  0.61722095  0.28937627     0.01800
H1123       H  0.11334401  0.62425650  0.21545670     0.14800
H1124       H  0.09648891  0.59127556  0.32239566     0.14800
C1125       C  0.14915610  0.62371688  0.31030603     0.36400
C1126       C  0.06061302  0.58877122  0.22647392     0.36300
N1127       N  0.16623330  0.62797684  0.32772389    -0.43900
N1128       N  0.04308285  0.58027869  0.20856446    -0.43900
C1129       C  0.92533030  0.52112564  0.28824375    -0.00400
C1130       C  0.90339172  0.50741338  0.30883395    -0.12200
C1131       C  0.87652659  0.49992995  0.30055506     0.01900
C1132       C  0.87124481  0.50578209  0.27099927    -0.00400
C1133       C  0.89344590  0.52098337  0.25106076    -0.12200
C1134       C  0.92043494  0.52896882  0.25953151     0.01800
H1135       H  0.90707570  0.50154916  0.33103231     0.14800
H1136       H  0.88940566  0.52503003  0.22808571     0.14800
C1137       C  0.94216063  0.54269344  0.23725189     0.36400
C1138       C  0.85452326  0.48443945  0.32200109     0.36300
N1139       N  0.95955328  0.55360931  0.21936921    -0.43900
N1140       N  0.83713554  0.47220742  0.33954405    -0.43900
C1141       C  0.92332374  0.36719466  0.24420551    -0.00400
C1142       C  0.90165798  0.35071185  0.22421384    -0.12200
C1143       C  0.87474184  0.33351473  0.23505113     0.01900
C1144       C  0.86908843  0.33351222  0.26652871    -0.00400
C1145       C  0.89119300  0.34864088  0.28662022    -0.12200
C1146       C  0.91812671  0.36538569  0.27580310     0.01800
H1147       H  0.90565018  0.35193362  0.19992303     0.14800
H1148       H  0.88721796  0.34845729  0.31081373     0.14800
C1149       C  0.93948396  0.38251885  0.29737805     0.36400
C1150       C  0.85338084  0.31776219  0.21289834     0.36300
N1151       N  0.95648386  0.39634238  0.31472911    -0.43900
N1152       N  0.83641820  0.30520531  0.19496586    -0.43900
C1153       C  0.07432826  0.44457681  0.23972048    -0.00400
C1154       C  0.09283816  0.44254399  0.22049581    -0.12200
C1155       C  0.12029683  0.45288421  0.22963552     0.01900
C1156       C  0.12940198  0.46541604  0.25868016    -0.00400
C1157       C  0.10972732  0.46480315  0.27865166    -0.12200
C1158       C  0.08265541  0.45497010  0.26933887     0.01800
H1159       H  0.08629039  0.43432250  0.19771069     0.14800
H1160       H  0.11566458  0.47315010  0.30135651     0.14800
C1161       C  0.06394163  0.45665285  0.29026802     0.36400
C1162       C  0.13858377  0.45158253  0.20790985     0.36300
N1163       N  0.04890786  0.45801098  0.30691632    -0.43900
N1164       N  0.15275011  0.44997258  0.19019906    -0.43900
In1165     In  0.99950546  0.43649546  0.71462221     1.36900
C1166       C  0.95216186  0.39285300  0.73233368     0.77400
O1167       O  0.99804512  0.45226028  0.76102289    -0.61100
O1168       O  0.99618319  0.47383704  0.72257252    -0.52000
C1169       C  0.04879828  0.44470466  0.72830470     0.70100
O1170       O  0.02859878  0.42114660  0.72212426    -0.46800
C1171       C  0.00046340  0.43887031  0.65375172     0.74800
O1172       O  0.97512872  0.39849848  0.74297942    -0.58700
O1173       O  0.00134590  0.45743125  0.67022302    -0.48800
O1174       O  0.95353405  0.40854345  0.71126120    -0.55100
C1175       C  0.99662647  0.47223948  0.75125521     0.84900
O1176       O  0.04420187  0.46393498  0.72561741    -0.57000
O1177       O  0.99907429  0.41912974  0.66832769    -0.60300
In1178     In  0.99963451  0.53134157  0.80868299     1.36900
C1179       C  0.95250672  0.52934375  0.79847827     0.77400
O1180       O  0.99483109  0.51237088  0.76227565    -0.61100
O1181       O  0.99888619  0.49186479  0.80029014    -0.52000
C1182       C  0.05033583  0.57094795  0.79258456     0.70100
O1183       O  0.02887328  0.56930568  0.78204752    -0.46800
C1184       C  0.99949517  0.53149520  0.86949197     0.74800
O1185       O  0.97565191  0.55056650  0.79303107    -0.58700
O1186       O  0.99691651  0.51161592  0.85405708    -0.48800
O1187       O  0.95369574  0.50963848  0.80974255    -0.55100
C1188       C  0.99650825  0.49249361  0.77178717     0.84900
O1189       O  0.04576924  0.55330348  0.81271215    -0.57000
O1190       O  0.00225173  0.55137763  0.85387973    -0.60300
In1191     In  0.00132171  0.44200885  0.55948531     1.36900
C1192       C  0.04950094  0.44766036  0.54452843     0.77400
O1193       O  0.00091910  0.45759977  0.51276705    -0.61100
O1194       O  0.00433311  0.48249818  0.55044745    -0.52000
C1195       C  0.95038896  0.40200280  0.54604063     0.70100
O1196       O  0.97134080  0.40112604  0.53839471    -0.46800
C1197       C  0.00095817  0.44008225  0.62025773     0.74800
O1198       O  0.02670904  0.42591354  0.53928017    -0.58700
O1199       O  0.00306555  0.46015467  0.60564355    -0.48800
O1200       O  0.04744348  0.46563185  0.55895401    -0.55100
C1201       C  0.00290369  0.47945514  0.52188693     0.84900
O1202       O  0.95559765  0.42281735  0.56144634    -0.57000
O1203       O  0.99925766  0.42109147  0.60384720    -0.60300
In1204     In  0.00034517  0.53177805  0.96382805     1.36900
C1205       C  0.04994125  0.57578201  0.97544446     0.77400
O1206       O  0.00558769  0.52160038  0.50935802    -0.61100
O1207       O  0.00040842  0.49270286  0.97255105    -0.52000
C1208       C  0.95152541  0.52483583  0.97833376     0.70100
O1209       O  0.97416407  0.54582507  0.98579101    -0.46800
C1210       C  0.99950347  0.53153178  0.90301232     0.74800
O1211       O  0.02786276  0.57383242  0.98424105    -0.58700
O1212       O  0.99871673  0.51249715  0.91851334    -0.48800
O1213       O  0.04649017  0.55558349  0.96001955    -0.55100
C1214       C  0.00121242  0.49507291  0.00112950     0.84900
O1215       O  0.95385708  0.50785439  0.96226713    -0.57000
O1216       O  0.00047740  0.55063441  0.91856222    -0.60300
C1217       C  0.31196719  0.78332045  0.98691600     0.86300
C1218       C  0.33670293  0.77154243  0.49119519    -0.53900
C1219       C  0.35898263  0.79248785  0.98472079     0.09200
C1220       C  0.36280183  0.81889002  0.97059567     0.20200
C1221       C  0.32870913  0.80860012  0.50201609    -0.54700
C1222       C  0.35201559  0.83028684  0.99541783     0.09300
C1223       C  0.31535014  0.79171604  0.95326640    -0.54200
C1224       C  0.34178471  0.80935790  0.94455352     0.09900
H1225       H  0.33136864  0.75265434  0.50303212     0.14400
H1226       H  0.38387677  0.83318379  0.96206699     0.00100
H1227       H  0.31825312  0.81315435  0.51946457     0.14700
H1228       H  0.29835773  0.78340024  0.93712408     0.14500
C1229       C  0.21177241  0.68191400  0.52447722     0.86300
C1230       C  0.21388421  0.65681169  0.51551149    -0.53900
C1231       C  0.19220161  0.63163023  0.52419183     0.09200
C1232       C  0.17045320  0.63432467  0.54244245     0.20200
C1233       C  0.18374081  0.67512424  0.51175257    -0.54700
C1234       C  0.16219424  0.65030975  0.52109264     0.09300
C1235       C  0.20819793  0.67891655  0.55925010    -0.54200
C1236       C  0.18646118  0.65428472  0.56853226     0.09900
H1237       H  0.23119905  0.65895110  0.50286192     0.14400
H1238       H  0.15283424  0.61493539  0.55123117     0.00100
H1239       H  0.17671342  0.68804789  0.99579602     0.14700
H1240       H  0.22212621  0.69422837  0.57548459     0.14500
C1241       C  0.20702901  0.50049781  0.98733769     0.86300
C1242       C  0.20970156  0.52577463  0.49327684    -0.53900
C1243       C  0.19226546  0.53423119  0.98760071     0.09200
C1244       C  0.16792688  0.50956223  0.97125717     0.20200
C1245       C  0.17503383  0.47697573  0.49749615    -0.54700
C1246       C  0.15849551  0.48550483  0.99368822     0.09300
C1247       C  0.20129668  0.49862083  0.95285593    -0.54200
C1248       C  0.18115789  0.50347883  0.94443737     0.09900
H1249       H  0.22788053  0.53953432  0.50652714     0.14400
H1250       H  0.15119924  0.51291464  0.96393109     0.00100
H1251       H  0.17136563  0.46069874  0.51320503     0.14700
H1252       H  0.21326494  0.49616156  0.93545603     0.14500
C1253       C  0.30419533  0.49663319  0.51967030     0.86300
C1254       C  0.32800998  0.52521698  0.50938822    -0.53900
C1255       C  0.35374766  0.53069826  0.51710900     0.09200
C1256       C  0.35353195  0.50755823  0.53511176     0.20200
C1257       C  0.31180766  0.47622599  0.50650521    -0.54700
C1258       C  0.33772891  0.48225483  0.51457207     0.09300
C1259       C  0.30875448  0.49577809  0.55417573    -0.54200
C1260       C  0.33465135  0.50251481  0.56220933     0.09900
H1261       H  0.32464940  0.53985911  0.49733056     0.14400
H1262       H  0.37437643  0.51200160  0.54167068     0.00100
H1263       H  0.29788481  0.45739898  0.99925820     0.14700
H1264       H  0.29350628  0.49045272  0.57175123     0.14500
C1265       C  0.49447851  0.67681952  0.49215685     0.86300
C1266       C  0.46475853  0.65333822  0.49857992    -0.53900
C1267       C  0.46001659  0.62814870  0.99171724     0.09200
C1268       C  0.48484190  0.62921775  0.97652009     0.20200
C1269       C  0.51305701  0.66840043  0.50846917    -0.54700
C1270       C  0.50768677  0.64275168  0.50071269     0.09300
C1271       C  0.49665112  0.67402559  0.95759543    -0.54200
C1272       C  0.49233120  0.64902010  0.94960227     0.09900
H1273       H  0.44913062  0.65646653  0.50863856     0.14400
H1274       H  0.48064846  0.60858415  0.96991892     0.00100
H1275       H  0.52941735  0.68194172  0.52402033     0.14700
H1276       H  0.50119513  0.68908971  0.94009717     0.14500
C1277       C  0.49455733  0.77665245  0.52763999     0.86300
C1278       C  0.46523501  0.76848239  0.51793534    -0.53900
C1279       C  0.45820213  0.78740660  0.52477140     0.09200
C1280       C  0.48083766  0.81243529  0.54235051     0.20200
C1281       C  0.51360748  0.80558575  0.51379064    -0.54700
C1282       C  0.50594094  0.82400162  0.52108552     0.09300
C1283       C  0.49593290  0.78258528  0.56195224    -0.54200
C1284       C  0.48834360  0.80073291  0.56979188     0.09900
H1285       H  0.45143484  0.74935176  0.50620238     0.14400
H1286       H  0.47532903  0.82785803  0.54858304     0.00100
H1287       H  0.52676081  0.80986567  0.00227221     0.14700
H1288       H  0.50352270  0.77435149  0.57900504     0.14500
C1289       C  0.31108522  0.78211164  0.77606103     0.86300
C1290       C  0.31930008  0.80846209  0.75789120    -0.53900
C1291       C  0.34535458  0.82968839  0.76407285     0.09200
C1292       C  0.36076087  0.82332509  0.78824739     0.20200
C1293       C  0.33440599  0.77637376  0.77015455    -0.54700
C1294       C  0.36054783  0.79794689  0.77584600     0.09300
C1295       C  0.31545887  0.79162317  0.80947747    -0.54200
C1296       C  0.34137540  0.81290751  0.81589804     0.09900
H1297       H  0.30601161  0.81003499  0.74127166     0.14400
H1298       H  0.38141267  0.84144714  0.79309826     0.00100
H1299       H  0.33026209  0.75670449  0.76163008     0.14700
H1300       H  0.30059934  0.78193168  0.82763886     0.14500
C1301       C  0.20963039  0.67768892  0.74144400     0.86300
C1302       C  0.18128465  0.66638517  0.75703849    -0.53900
C1303       C  0.16174584  0.64032959  0.74800924     0.09200
C1304       C  0.17187404  0.62808043  0.72385455     0.20200
C1305       C  0.21717273  0.65580594  0.74706053    -0.54700
C1306       C  0.19727064  0.62968753  0.73881779     0.09300
C1307       C  0.20234053  0.67518409  0.70742354    -0.54200
C1308       C  0.18317940  0.64944545  0.69801837     0.09900
H1309       H  0.17660537  0.67785994  0.77304861     0.14400
H1310       H  0.15565608  0.60715091  0.71642606     0.00100
H1311       H  0.23678511  0.66084895  0.75695837     0.14700
H1312       H  0.21101487  0.69231941  0.69163341     0.14500
C1313       C  0.20755433  0.49476137  0.77379682     0.86300
C1314       C  0.20391673  0.49669171  0.80832485    -0.53900
C1315       C  0.18528795  0.50389375  0.81577990     0.09200
C1316       C  0.17118106  0.50792701  0.78828570     0.20200
C1317       C  0.17791704  0.47393585  0.76258048    -0.54700
C1318       C  0.15881362  0.48101458  0.76970044     0.09300
C1319       C  0.21394903  0.52281553  0.76130280    -0.54200
C1320       C  0.19480129  0.52937097  0.76865055     0.09900
H1321       H  0.21478022  0.49317483  0.82619200     0.14400
H1322       H  0.15652924  0.51446591  0.79457038     0.00100
H1323       H  0.17282786  0.45536844  0.75035273     0.14700
H1324       H  0.23217858  0.53641632  0.74796773     0.14500
C1325       C  0.30577352  0.49218670  0.73369061     0.86300
C1326       C  0.31312777  0.47131588  0.74530030    -0.53900
C1327       C  0.33905531  0.47753746  0.73736203     0.09200
C1328       C  0.35506090  0.50361436  0.71756071     0.20200
C1329       C  0.32970918  0.52015752  0.74515605    -0.54700
C1330       C  0.35586158  0.52657203  0.73702569     0.09300
C1331       C  0.31041190  0.49319618  0.69909061    -0.54200
C1332       C  0.33611536  0.49959513  0.69072525     0.09900
H1333       H  0.30016066  0.45469975  0.76083409     0.14400
H1334       H  0.37493154  0.50733606  0.70907592     0.00100
H1335       H  0.32566128  0.53306210  0.75957322     0.14700
H1336       H  0.29587326  0.49012695  0.68175644     0.14500
C1337       C  0.48774847  0.67854809  0.77912630     0.86300
C1338       C  0.49123152  0.67515033  0.81318756    -0.53900
C1339       C  0.48590315  0.64982402  0.82133466     0.09200
C1340       C  0.47788557  0.62988901  0.79454987     0.20200
C1341       C  0.50696036  0.67041263  0.76331240    -0.54700
C1342       C  0.50160910  0.64484821  0.77166959     0.09300
C1343       C  0.45866410  0.65470364  0.77069065    -0.54200
C1344       C  0.45326456  0.62920702  0.77878354     0.09900
H1345       H  0.49749819  0.69160561  0.82964607     0.14400
H1346       H  0.47397374  0.60942861  0.80151192     0.00100
H1347       H  0.52273559  0.68282666  0.74674777     0.14700
H1348       H  0.44440462  0.65789788  0.75748108     0.14500
C1349       C  0.48981587  0.78004768  0.74472345     0.86300
C1350       C  0.50906771  0.80798438  0.76016701    -0.53900
C1351       C  0.50616631  0.82891632  0.74936947     0.09200
C1352       C  0.48431035  0.82013024  0.72418572     0.20200
C1353       C  0.46056093  0.77541308  0.74847862    -0.54700
C1354       C  0.45798163  0.79650615  0.73853384     0.09300
C1355       C  0.49522038  0.78550608  0.71032576    -0.54200
C1356       C  0.49259828  0.80652753  0.69960040     0.09900
H1357       H  0.52284185  0.81067593  0.77881419     0.14400
H1358       H  0.48167939  0.83696201  0.71559957     0.00100
H1359       H  0.44302428  0.75741254  0.75847547     0.14700
H1360       H  0.49915385  0.77281206  0.69528743     0.14500
In1361     In  0.45880808  0.99155199  0.71716141     1.36900
C1362       C  0.46384843  0.03897999  0.73447107     0.77400
O1363       O  0.47251005  0.98762037  0.76416336    -0.61100
O1364       O  0.49852580  0.99272707  0.72697129    -0.52000
C1365       C  0.41651283  0.94048057  0.72479418     0.70100
O1366       O  0.41469624  0.96121157  0.73034723    -0.46800
C1367       C  0.45925075  0.99260450  0.65613889     0.74800
O1368       O  0.44376250  0.01588353  0.74237175    -0.58700
O1369       O  0.47911944  0.99506739  0.67173326    -0.48800
O1370       O  0.48079659  0.03766452  0.71708919    -0.55100
C1371       C  0.49433305  0.98916503  0.75528555     0.84900
O1372       O  0.43964039  0.94617252  0.71460290    -0.57000
O1373       O  0.43961794  0.99060570  0.67168827    -0.60300
In1374     In  0.54865605  0.98389494  0.81399678     1.36900
C1375       C  0.59154381  0.03334899  0.80068622     0.77400
O1376       O  0.53408347  0.98660700  0.76708344    -0.61100
O1377       O  0.50986871  0.98470443  0.80474197    -0.52000
C1378       C  0.54046099  0.93478437  0.80060478     0.70100
O1379       O  0.56301605  0.95682097  0.79555152    -0.46800
C1380       C  0.54898385  0.98283022  0.87474500     0.74800
O1381       O  0.58981543  0.01155967  0.79143227    -0.58700
O1382       O  0.53066677  0.98385723  0.85954595    -0.48800
O1383       O  0.57233238  0.02952626  0.81828234    -0.55100
C1384       C  0.51320275  0.98677849  0.77624101     0.84900
O1385       O  0.52234618  0.93781132  0.81336897    -0.57000
O1386       O  0.56734355  0.98247950  0.85892489    -0.60300
In1387     In  0.45776636  0.98855126  0.56154395     1.36900
C1388       C  0.41862800  0.93739234  0.54689354     0.77400
O1389       O  0.47415634  0.98869353  0.51495517    -0.61100
O1390       O  0.49562631  0.98628707  0.55341280    -0.52000
C1391       C  0.46703146  0.03810651  0.54609185     0.70100
O1392       O  0.44350471  0.01652598  0.54307390    -0.46800
C1393       C  0.45872859  0.99146660  0.62255230     0.74800
O1394       O  0.41553008  0.95744700  0.54159217    -0.58700
O1395       O  0.47833761  0.99336166  0.60709826    -0.48800
O1396       O  0.43989254  0.94349781  0.56209025    -0.55100
C1397       C  0.49389227  0.98665637  0.52475375     0.84900
O1398       O  0.48502850  0.03388142  0.55698110    -0.57000
O1399       O  0.43848669  0.98800611  0.60689381    -0.60300
In1400     In  0.54893120  0.98325765  0.96895009     1.36900
C1401       C  0.53992037  0.93385449  0.98442386     0.77400
O1402       O  0.53303576  0.98289392  0.51406954    -0.61100
O1403       O  0.51064582  0.98523588  0.97711322    -0.52000
C1404       C  0.59288818  0.03255191  0.97979653     0.70100
O1405       O  0.59130355  0.01073713  0.98872803    -0.46800
C1406       C  0.54890885  0.98237196  0.90824341     0.74800
O1407       O  0.56102449  0.95595701  0.99292849    -0.58700
O1408       O  0.53019718  0.98243460  0.92364248    -0.48800
O1409       O  0.52401753  0.93710023  0.96726141    -0.55100
C1410       C  0.51355044  0.98725518  0.00563610     0.84900
O1411       O  0.57296643  0.02894453  0.96359200    -0.57000
O1412       O  0.56752659  0.98219632  0.92386330    -0.60300
C1413       C  0.51101673  0.19555480  0.77465104     0.86300
C1414       C  0.53880220  0.19838071  0.76542304    -0.53900
C1415       C  0.54353188  0.17931374  0.77816024     0.09200
C1416       C  0.51995654  0.15881638  0.79881340     0.20200
C1417       C  0.48926569  0.16575057  0.76614187    -0.54700
C1418       C  0.49418351  0.14657037  0.77835021     0.09300
C1419       C  0.51219085  0.19603042  0.80958061    -0.54200
C1420       C  0.51694941  0.17703562  0.82227445     0.09900
H1421       H  0.55375610  0.21369207  0.75012721     0.14400
H1422       H  0.52354848  0.14320760  0.80927899     0.00100
H1423       H  0.47311261  0.16055497  0.74948495     0.14700
H1424       H  0.50996184  0.21063836  0.82321808     0.14500
C1425       C  0.50393540  0.29173305  0.73836632     0.86300
C1426       C  0.53271167  0.31644611  0.74562620    -0.53900
C1427       C  0.53668017  0.34110659  0.73694542     0.09200
C1428       C  0.51133983  0.33932477  0.72195619     0.20200
C1429       C  0.48425720  0.29906827  0.75450236    -0.54700
C1430       C  0.48818807  0.32403536  0.74558159     0.09300
C1431       C  0.49928541  0.29409191  0.70438812    -0.54200
C1432       C  0.50311815  0.31878067  0.69563613     0.09900
H1433       H  0.54849096  0.31463626  0.75752235     0.14400
H1434       H  0.51484121  0.35966124  0.71509468     0.00100
H1435       H  0.46917077  0.28654740  0.77163532     0.14700
H1436       H  0.49394383  0.27755449  0.68832323     0.14500
C1437       C  0.79265653  0.29701874  0.78058788     0.86300
C1438       C  0.79289510  0.32337991  0.77110142    -0.53900
C1439       C  0.81530578  0.34718262  0.78099232     0.09200
C1440       C  0.83548254  0.34306436  0.79994825     0.20200
C1441       C  0.82045949  0.30185674  0.76942097    -0.54700
C1442       C  0.84289091  0.32610507  0.77894559     0.09300
C1443       C  0.79538810  0.29943507  0.81539379    -0.54200
C1444       C  0.81770859  0.32331389  0.82555343     0.09900
H1445       H  0.77672124  0.32415290  0.75892878     0.14400
H1446       H  0.85341676  0.36267987  0.80825668     0.00100
H1447       H  0.82202268  0.28740312  0.75478702     0.14700
H1448       H  0.78067349  0.28370615  0.83082378     0.14500
C1449       C  0.69114442  0.19202019  0.74867824     0.86300
C1450       C  0.66666974  0.19481040  0.75793200    -0.53900
C1451       C  0.64114164  0.17360259  0.74935663     0.09200
C1452       C  0.64283895  0.15049954  0.73283692     0.20200
C1453       C  0.68417387  0.16460534  0.76361421    -0.54700
C1454       C  0.65883658  0.14298275  0.75512336     0.09300
C1455       C  0.68786180  0.18580074  0.71452774    -0.54200
C1456       C  0.66285811  0.16418550  0.70626204     0.09900
H1457       H  0.66983166  0.21221569  0.77129319     0.14400
H1458       H  0.62300477  0.13276567  0.72502841     0.00100
H1459       H  0.69690708  0.16216768  0.78014790     0.14700
H1460       H  0.70429727  0.19734161  0.69815067     0.14500
C1461       C  0.79560851  0.47595971  0.74813675     0.86300
C1462       C  0.79204970  0.44822776  0.75714867    -0.53900
C1463       C  0.81438748  0.44584281  0.75154112     0.09200
C1464       C  0.83803628  0.47142054  0.73547041     0.20200
C1465       C  0.82260553  0.49742807  0.76459549    -0.54700
C1466       C  0.84467508  0.49492977  0.75750719     0.09300
C1467       C  0.80341358  0.47963924  0.71445468    -0.54200
C1468       C  0.82506771  0.47677515  0.70759783     0.09900
H1469       H  0.77295848  0.43181867  0.76679601     0.14400
H1470       H  0.85641207  0.47018736  0.72993380     0.00100
H1471       H  0.82454208  0.51252540  0.78094800     0.14700
H1472       H  0.79235920  0.48381649  0.69715394     0.14500
C1473       C  0.68960687  0.46741248  0.77627984     0.86300
C1474       C  0.66344732  0.44077316  0.76505067    -0.53900
C1475       C  0.63911599  0.43712357  0.77562109     0.09200
C1476       C  0.64302648  0.46020459  0.79703146     0.20200
C1477       C  0.68439889  0.49046368  0.76755257    -0.54700
C1478       C  0.65993877  0.48656262  0.77814259     0.09300
C1479       C  0.68676475  0.46503602  0.81094753    -0.54200
C1480       C  0.66256295  0.46114808  0.82193809     0.09900
H1481       H  0.66332030  0.42522161  0.75092919     0.14400
H1482       H  0.62344864  0.45758939  0.80569792     0.00100
H1483       H  0.69790298  0.50730804  0.75251032     0.14700
H1484       H  0.70267698  0.46614108  0.82571085     0.14500
C1485       C  0.78998743  0.29813129  0.00088863     0.86300
C1486       C  0.82001826  0.30665316  0.51196108    -0.53900
C1487       C  0.83967117  0.32967417  0.00048437     0.09200
C1488       C  0.83007288  0.34542675  0.98054787     0.20200
C1489       C  0.78846967  0.32332867  0.51096391    -0.54700
C1490       C  0.80942560  0.34822396  0.00087958     0.09300
C1491       C  0.79128303  0.30071485  0.96602843    -0.54200
C1492       C  0.81243783  0.32506210  0.95542022     0.09900
H1493       H  0.82416588  0.29498649  0.52837760     0.14400
H1494       H  0.84714201  0.36475983  0.97086559     0.00100
H1495       H  0.77252577  0.32180774  0.52558117     0.14700
H1496       H  0.77704353  0.28442222  0.95080829     0.14500
C1497       C  0.69520247  0.18982196  0.53702600     0.86300
C1498       C  0.68849286  0.16282039  0.52103408    -0.53900
C1499       C  0.66291314  0.14082828  0.52851200     0.09200
C1500       C  0.64647595  0.14775688  0.55089354     0.20200
C1501       C  0.67092854  0.19288774  0.52779513    -0.54700
C1502       C  0.64531160  0.17130217  0.53508466     0.09300
C1503       C  0.69114868  0.18233963  0.57094296    -0.54200
C1504       C  0.66567220  0.16087900  0.57832363     0.09900
H1505       H  0.70177834  0.16093198  0.50482970     0.14400
H1506       H  0.62626540  0.12993434  0.55771267     0.00100
H1507       H  0.67420061  0.21081173  0.51536315     0.14700
H1508       H  0.70699410  0.19369972  0.58799662     0.14500
C1509       C  0.51276189  0.19575026  0.99980156     0.86300
C1510       C  0.51282020  0.19456872  0.96498123    -0.53900
C1511       C  0.51716327  0.17507732  0.95319233    -0.01600
C1512       C  0.52155945  0.15838420  0.97759884     0.20200
C1513       C  0.49559285  0.16561054  0.51022975    -0.54700
C1514       C  0.49656749  0.14686959  0.99932985     0.09300
C1515       C  0.54497863  0.19765248  0.51197229    -0.54200
C1516       C  0.54586426  0.18015671  0.99675853     0.09900
H1517       H  0.51056412  0.20879238  0.95059475     0.14400
H1518       H  0.52482477  0.14244299  0.96764509     0.00100
H1519       H  0.47949476  0.16094409  0.52672852     0.14700
H1520       H  0.55874849  0.21202096  0.52875811     0.14500
C1521       C  0.51211492  0.29435503  0.52602921     0.86300
C1522       C  0.49236944  0.30068433  0.50844095    -0.53900
C1523       C  0.49551034  0.32547800  0.51639441     0.09200
C1524       C  0.51777576  0.34144809  0.54084591     0.20200
C1525       C  0.54075207  0.31961155  0.51910296    -0.54700
C1526       C  0.54442801  0.34458658  0.52710422     0.09300
C1527       C  0.50648942  0.29685261  0.55951284    -0.54200
C1528       C  0.50955675  0.32125782  0.56746093     0.09900
H1529       H  0.47268931  0.28783270  0.99429075     0.14400
H1530       H  0.51900105  0.36048116  0.54836359     0.00100
H1531       H  0.55641105  0.31739962  0.50768263     0.14700
H1532       H  0.50067133  0.28041735  0.57590832     0.14500
C1533       C  0.80159645  0.48519491  0.53595934     0.86300
C1534       C  0.83022472  0.50368823  0.52103398    -0.53900
C1535       C  0.84968583  0.49765911  0.52990333     0.09200
C1536       C  0.83899602  0.47407771  0.55311617     0.20200
C1537       C  0.79440516  0.45575469  0.52884322    -0.54700
C1538       C  0.81376034  0.44971465  0.53756991     0.09300
C1539       C  0.80799827  0.48868433  0.57041333    -0.54200
C1540       C  0.82739859  0.48285121  0.57922278     0.09900
H1541       H  0.83162820  0.51732087  0.00548378     0.14400
H1542       H  0.85479085  0.46944046  0.56073368     0.00100
H1543       H  0.77611001  0.44155536  0.51597008     0.14700
H1544       H  0.79860734  0.49519535  0.58712182     0.14500
C1545       C  0.69953759  0.48005575  0.49308726     0.86300
C1546       C  0.69162921  0.50071156  0.50417818    -0.53900
C1547       C  0.66387270  0.49156506  0.99634751     0.09200
C1548       C  0.64688224  0.46483359  0.97791240     0.20200
C1549       C  0.67596719  0.45196310  0.50499198    -0.54700
C1550       C  0.64586549  0.44230276  0.99827684     0.09300
C1551       C  0.69073910  0.47303593  0.95943204    -0.54200
C1552       C  0.66517986  0.46723101  0.95103635     0.09900
H1553       H  0.70452909  0.51785891  0.51915966     0.14400
H1554       H  0.62642334  0.46081381  0.97051826     0.00100
H1555       H  0.68004924  0.43958410  0.52028667     0.14700
H1556       H  0.70505874  0.47478573  0.94209200     0.14500
In1557     In  0.45135135  0.43895107  0.80944782     1.36900
C1558       C  0.45353783  0.39446987  0.79527664     0.77400
O1559       O  0.47192100  0.45374961  0.76385268    -0.61100
O1560       O  0.49102170  0.47934540  0.80220989    -0.52000
C1561       C  0.41074137  0.44730339  0.79432380     0.70100
O1562       O  0.40783398  0.42381380  0.79371963    -0.46800
C1563       C  0.45213029  0.44074172  0.87025188     0.74800
O1564       O  0.43699060  0.39999369  0.78282805    -0.58700
O1565       O  0.47305341  0.45609901  0.85423195    -0.48800
O1566       O  0.46798970  0.41096644  0.81609472    -0.55100
C1567       C  0.49150837  0.47612764  0.77387938     0.84900
O1568       O  0.43396686  0.46608153  0.80379076    -0.57000
O1569       O  0.43075243  0.42444125  0.85523527    -0.60300
In1570     In  0.55155197  0.53550605  0.71837649     1.36900
C1571       C  0.59274312  0.52828624  0.73525016     0.77400
O1572       O  0.53236151  0.51935929  0.76418560    -0.61100
O1573       O  0.51297814  0.49414849  0.72560963    -0.52000
C1574       C  0.54218474  0.57597920  0.73079652     0.70100
O1575       O  0.56397135  0.57682473  0.73892524    -0.46800
C1576       C  0.55293936  0.53557479  0.65734148     0.74800
O1577       O  0.59237265  0.54953160  0.74244916    -0.58700
O1578       O  0.53332074  0.51703655  0.67274889    -0.48800
O1579       O  0.57303923  0.51185199  0.71837463    -0.55100
C1580       C  0.51285398  0.49697585  0.75406753     0.84900
O1581       O  0.52616052  0.55532317  0.71484564    -0.57000
O1582       O  0.57217693  0.55440030  0.67309883    -0.60300
In1583     In  0.45385528  0.44173389  0.96466732     1.36900
C1584       C  0.41186716  0.44840898  0.97686430     0.77400
O1585       O  0.46958921  0.45548102  0.51303540    -0.61100
O1586       O  0.49384142  0.48129399  0.97441715    -0.52000
C1587       C  0.45890150  0.39861607  0.97555715     0.70100
O1588       O  0.43832827  0.39965709  0.98439763    -0.46800
C1589       C  0.45271979  0.44148538  0.90375967     0.74800
O1590       O  0.41092755  0.42619624  0.98233477    -0.58700
O1591       O  0.47345886  0.45893534  0.91885219    -0.48800
O1592       O  0.43423544  0.46692329  0.96524904    -0.55100
C1593       C  0.49219836  0.47823520  0.00295723     0.84900
O1594       O  0.47638134  0.41938569  0.96075333    -0.57000
O1595       O  0.43256753  0.42443844  0.91973305    -0.60300
In1596     In  0.55240427  0.53317165  0.56269186     1.36900
C1597       C  0.54840461  0.57566624  0.54531821     0.77400
O1598       O  0.53509215  0.51657545  0.51615901    -0.61100
O1599       O  0.51055624  0.49449593  0.55411029    -0.52000
C1600       C  0.59340132  0.52460533  0.55123618     0.70100
O1601       O  0.59597502  0.54784209  0.54813588    -0.46800
C1602       C  0.55301030  0.53496332  0.62370063     0.74800
O1603       O  0.56565745  0.57067630  0.53381543    -0.58700
O1604       O  0.53337713  0.51602074  0.60853698    -0.48800
O1605       O  0.53453520  0.56003768  0.56697772    -0.55100
C1606       C  0.51286289  0.49626546  0.52545960     0.84900
O1607       O  0.57033973  0.50633424  0.56164890    -0.57000
O1608       O  0.57247102  0.55314197  0.60770726    -0.60300
C1609       C  0.65046099  0.50444892  0.51345767    -0.00400
C1610       C  0.63234608  0.48801127  0.53657928    -0.12200
C1611       C  0.61428202  0.49460680  0.55021478     0.01900
C1612       C  0.61485435  0.51877215  0.54137585    -0.00400
C1613       C  0.63488370  0.53652068  0.52019622    -0.12200
C1614       C  0.65142835  0.52797326  0.00119623     0.01800
H1615       H  0.63175815  0.46944399  0.54341832     0.14800
H1616       H  0.63377459  0.55339983  0.00434564     0.14800
C1617       C  0.66972034  0.54380269  0.97660772     0.36400
C1618       C  0.59506779  0.47577269  0.57258419     0.36300
N1619       N  0.68463586  0.55650671  0.95706416    -0.43900
N1620       N  0.57965977  0.46048304  0.59035518    -0.43900
C1621       C  0.77815953  0.48935657  0.52456183    -0.00400
C1622       C  0.76006474  0.49141043  0.54499954    -0.12200
C1623       C  0.73548582  0.48940694  0.53519868     0.01900
C1624       C  0.72822706  0.48604105  0.50388971    -0.00400
C1625       C  0.74447325  0.48298281  0.98423064    -0.12200
C1626       C  0.76891121  0.48495035  0.99410173     0.01800
H1627       H  0.76361624  0.49289693  0.56919782     0.14800
H1628       H  0.74140559  0.48202177  0.95994574     0.14800
C1629       C  0.78641538  0.48366174  0.97108674     0.36400
C1630       C  0.71740306  0.48938781  0.55836889     0.36300
N1631       N  0.80027663  0.48245345  0.95261780    -0.43900
N1632       N  0.70301350  0.48940807  0.57700735    -0.43900
C1633       C  0.48147939  0.33807565  0.50109919    -0.00400
C1634       C  0.48792938  0.35175522  0.97794484    -0.12200
C1635       C  0.48140640  0.37071354  0.96690083     0.01900
C1636       C  0.46301898  0.37570245  0.98335277    -0.00400
C1637       C  0.45088251  0.35601465  0.50426847    -0.12200
C1638       C  0.45895431  0.33791872  0.51469267     0.01800
H1639       H  0.50324873  0.34917964  0.96621614     0.14800
H1640       H  0.43435219  0.35659757  0.51587681     0.14800
C1641       C  0.44462798  0.32011536  0.54015753     0.36400
C1642       C  0.49510471  0.38571686  0.93957678     0.36300
N1643       N  0.43308434  0.30567261  0.56044508    -0.43900
N1644       N  0.50640128  0.39788851  0.91785796    -0.43900
C1645       C  0.62351259  0.41924654  0.50583418    -0.00400
C1646       C  0.59558110  0.41911725  0.01174867    -0.12200
C1647       C  0.57379855  0.39698842  0.51631662     0.01900
C1648       C  0.57148102  0.37126291  0.52139109    -0.00400
C1649       C  0.59600891  0.37063213  0.51963814    -0.12200
C1650       C  0.62142416  0.39375760  0.51128038     0.01800
H1651       H  0.59713890  0.43872121  0.00869202     0.14800
H1652       H  0.59558217  0.35180701  0.52453677     0.14800
C1653       C  0.64436725  0.38986778  0.50697401     0.36400
C1654       C  0.54671646  0.40033362  0.01935812     0.36300
N1655       N  0.66262866  0.38651847  0.50364106    -0.43900
N1656       N  0.52898965  0.40473576  0.01985769    -0.43900
C1657       C  0.51249508  0.21798276  0.51213135    -0.00400
C1658       C  0.53051802  0.23839717  0.53274438    -0.12200
C1659       C  0.53048246  0.26262172  0.53695449     0.01900
C1660       C  0.51138354  0.26722433  0.52113957    -0.00400
C1661       C  0.49124622  0.24559184  0.50310943    -0.12200
C1662       C  0.49135612  0.22109602  0.49901078     0.01800
H1663       H  0.54520594  0.23617687  0.54602396     0.14800
H1664       H  0.47524218  0.24745930  0.49215668     0.14800
C1665       C  0.46436623  0.20047076  0.98010623     0.36400
C1666       C  0.55090165  0.28266318  0.55771024     0.36300
N1667       N  0.44675233  0.18362768  0.96536476    -0.43900
N1668       N  0.56728149  0.29872330  0.57421049    -0.43900
C1669       C  0.61982377  0.17179016  0.52734349    -0.00400
C1670       C  0.62195121  0.19751174  0.52643913    -0.12200
C1671       C  0.60049845  0.20043131  0.51570053     0.01900
C1672       C  0.57102347  0.17896098  0.00405404    -0.00400
C1673       C  0.57217502  0.15105625  0.51000611    -0.12200
C1674       C  0.59432036  0.14826425  0.51891663     0.01800
H1675       H  0.64088294  0.21590759  0.53340751     0.14800
H1676       H  0.54924611  0.13465558  0.00082922     0.14800
C1677       C  0.58984765  0.12095122  0.51810861     0.36400
C1678       C  0.60675373  0.22808900  0.51016490     0.36300
N1679       N  0.58532429  0.09868037  0.51742550    -0.43900
N1680       N  0.61206379  0.25032832  0.50563984    -0.43900
C1681       C  0.81221349  0.42348693  0.52904996    -0.00400
C1682       C  0.83643966  0.42447151  0.52022107    -0.12200
C1683       C  0.83583421  0.40026364  0.01255051     0.01900
C1684       C  0.81082471  0.37457413  0.00931277    -0.00400
C1685       C  0.78665294  0.37449522  0.51721751    -0.12200
C1686       C  0.78717316  0.39783276  0.52827301     0.01800
H1687       H  0.85586876  0.44398807  0.52038155     0.14800
H1688       H  0.76678018  0.35564002  0.51549268     0.14800
C1689       C  0.76179526  0.39435675  0.54006084     0.36400
C1690       C  0.86268218  0.40401719  0.00769407     0.36300
N1691       N  0.74150090  0.39158925  0.54959882    -0.43900
N1692       N  0.88466053  0.40807135  0.00383232    -0.43900
C1693       C  0.76843062  0.26968837  0.51388367    -0.00400
C1694       C  0.75000812  0.26712745  0.53685166    -0.12200
C1695       C  0.72754288  0.24161391  0.54538029     0.01900
C1696       C  0.72248136  0.21705212  0.53099586    -0.00400
C1697       C  0.74247704  0.21917282  0.51041551    -0.12200
C1698       C  0.76551100  0.24493644  0.50246060     0.01800
H1699       H  0.75290085  0.28482745  0.54904769     0.14800
H1700       H  0.74031852  0.20095066  0.50011983     0.14800
C1701       C  0.78587513  0.24522443  0.48251991     0.36400
C1702       C  0.70976659  0.24159935  0.56899835     0.36300
N1703       N  0.79811360  0.24477948  0.96183944    -0.43900
N1704       N  0.69575790  0.24162166  0.58811414    -0.43900
C1705       C  0.64712859  0.50171457  0.76616043    -0.00400
C1706       C  0.63909652  0.51527249  0.78646272    -0.12200
C1707       C  0.62295915  0.52593339  0.77651486     0.01900
C1708       C  0.61380301  0.52215925  0.74591915    -0.00400
C1709       C  0.62252500  0.50923093  0.72556883    -0.12200
C1710       C  0.63932053  0.49940647  0.73526479     0.01800
H1711       H  0.64481808  0.51686675  0.81028556     0.14800
H1712       H  0.61563179  0.50620964  0.70206059     0.14800
C1713       C  0.64696972  0.48563123  0.71338404     0.36400
C1714       C  0.61465942  0.53898723  0.79859677     0.36300
N1715       N  0.65331394  0.47472873  0.69591547    -0.43900
N1716       N  0.60818637  0.54949600  0.81645227    -0.43900
C1717       C  0.65619641  0.45737636  0.85492253    -0.00400
C1718       C  0.64727607  0.47333410  0.86936687    -0.12200
C1719       C  0.64702247  0.47477432  0.90128859     0.01900
C1720       C  0.65613284  0.46029048  0.91887178    -0.00400
C1721       C  0.66137434  0.44156232  0.90435081    -0.12200
C1722       C  0.66149211  0.43996063  0.87271267     0.01800
H1723       H  0.64218891  0.48598754  0.85579301     0.14800
H1724       H  0.66718169  0.42939080  0.91783090     0.14800
C1725       C  0.66816632  0.42101553  0.85921627     0.36400
C1726       C  0.63853172  0.49210249  0.91509823     0.36300
N1727       N  0.67375809  0.40599376  0.84851607    -0.43900
N1728       N  0.63101656  0.50566309  0.92560943    -0.43900
C1729       C  0.83453824  0.48313301  0.61168723    -0.00400
C1730       C  0.82673571  0.45803299  0.62570855    -0.12200
C1731       C  0.82587527  0.45578784  0.65753231     0.01900
C1732       C  0.83421040  0.47929029  0.67564209    -0.00400
C1733       C  0.84471893  0.50490799  0.66146617    -0.12200
C1734       C  0.84449752  0.50693856  0.62973316     0.01800
H1735       H  0.81871057  0.43965623  0.61186277     0.14800
H1736       H  0.85078435  0.52295431  0.67530524     0.14800
C1737       C  0.85309662  0.53333952  0.61628193     0.36400
C1738       C  0.81293897  0.42867005  0.67070047     0.36300
N1739       N  0.86006030  0.55449345  0.60546373    -0.43900
N1740       N  0.80208490  0.40666766  0.68065627    -0.43900
C1741       C  0.76891815  0.47602610  0.75325827    -0.00400
C1742       C  0.76788423  0.49524089  0.77241307    -0.12200
C1743       C  0.74287915  0.49375063  0.77856044     0.01900
C1744       C  0.71776106  0.47250194  0.76568365    -0.00400
C1745       C  0.71945135  0.45518101  0.74413524    -0.12200
C1746       C  0.74416631  0.45627930  0.73841125     0.01800
H1747       H  0.78629277  0.51136284  0.78327075     0.14800
H1748       H  0.70167162  0.44029908  0.73141927     0.14800
C1749       C  0.74307159  0.43605644  0.71756699     0.36400
C1750       C  0.74367335  0.51390009  0.79917115     0.36300
N1751       N  0.74215298  0.41977598  0.70106153    -0.43900
N1752       N  0.74441596  0.52992456  0.81594063    -0.43900
C1753       C  0.65722036  0.15440851  0.67442726    -0.00400
C1754       C  0.63805093  0.15738243  0.65746147    -0.12200
C1755       C  0.63813468  0.15633630  0.62554336     0.01900
C1756       C  0.65800735  0.15269770  0.61051487    -0.00400
C1757       C  0.67474886  0.14632238  0.62774796    -0.12200
C1758       C  0.67423262  0.14680265  0.65954073     0.01800
H1759       H  0.62453037  0.16264675  0.66898682     0.14800
H1760       H  0.68949112  0.14269517  0.61631917     0.14800
C1761       C  0.69220516  0.14067117  0.67647972     0.36400
C1762       C  0.61918778  0.16132707  0.60905729     0.36300
N1763       N  0.70642629  0.13556983  0.69012980    -0.43900
N1764       N  0.60354492  0.16511726  0.59649470    -0.43900
C1765       C  0.81886841  0.32952883  0.92251312    -0.00400
C1766       C  0.82865537  0.31423512  0.90831783    -0.12200
C1767       C  0.83113033  0.31432499  0.87663115     0.01900
C1768       C  0.82274996  0.32908798  0.85855507    -0.00400
C1769       C  0.81447219  0.34570632  0.87275952    -0.12200
C1770       C  0.81272399  0.34622172  0.90466408     0.01800
H1771       H  0.83340065  0.30138582  0.92199518     0.14800
H1772       H  0.80796120  0.35707282  0.85893985     0.14800
C1773       C  0.80284342  0.36247435  0.91846321     0.36400
C1774       C  0.84181332  0.29871676  0.86299719     0.36300
N1775       N  0.79495379  0.37552229  0.92954775    -0.43900
N1776       N  0.85074076  0.28654208  0.85202898    -0.43900
C1777       C  0.81815696  0.37411930  0.77543282    -0.00400
C1778       C  0.80329372  0.38184184  0.79387342    -0.12200
C1779       C  0.80256671  0.40552253  0.78754387     0.01900
C1780       C  0.81617414  0.42157852  0.76129521    -0.00400
C1781       C  0.83212929  0.41428861  0.74382916    -0.12200
C1782       C  0.83325666  0.39091448  0.75066706     0.01800
H1783       H  0.79189254  0.36906747  0.81317070     0.14800
H1784       H  0.84316542  0.42626443  0.72401226     0.14800
C1785       C  0.84948079  0.38443737  0.73117777     0.36400
C1786       C  0.78837470  0.41286332  0.80920744     0.36300
N1787       N  0.86286068  0.38024776  0.71488994    -0.43900
N1788       N  0.77689259  0.41847842  0.82675196    -0.43900
C1789       C  0.76789566  0.26930788  0.76999594    -0.00400
C1790       C  0.74816058  0.26832123  0.74980405    -0.12200
C1791       C  0.72403030  0.24374474  0.74262967     0.01900
C1792       C  0.71868008  0.21853110  0.75536137    -0.00400
C1793       C  0.73947114  0.21897565  0.77327918    -0.12200
C1794       C  0.76394814  0.24383293  0.78018983     0.01800
H1795       H  0.75113521  0.28658174  0.73872356     0.14800
H1796       H  0.73707677  0.20010406  0.78188753     0.14800
C1797       C  0.78488024  0.24242085  0.79737376     0.36400
C1798       C  0.70489740  0.24528964  0.72210059     0.36300
N1799       N  0.80170629  0.24111780  0.81081100    -0.43900
N1800       N  0.68954675  0.24647150  0.70574341    -0.43900
C1801       C  0.47385136  0.33712648  0.75914410    -0.00400
C1802       C  0.47597241  0.34216714  0.79061515    -0.12200
C1803       C  0.46783993  0.35944917  0.80335592     0.01900
C1804       C  0.45737439  0.37201432  0.78445747    -0.00400
C1805       C  0.45314745  0.36507892  0.75344252    -0.12200
C1806       C  0.46140350  0.34798978  0.74067866     0.01800
H1807       H  0.48526997  0.33371239  0.80504654     0.14800
H1808       H  0.44472924  0.37422429  0.73871630     0.14800
C1809       C  0.45722559  0.34239430  0.70843432     0.36400
C1810       C  0.47028415  0.36383146  0.83583812     0.36300
N1811       N  0.45358683  0.33819338  0.68256024    -0.43900
N1812       N  0.47191103  0.36711427  0.86193218    -0.43900
C1813       C  0.50456067  0.32628880  0.59928720    -0.00400
C1814       C  0.48039598  0.30589003  0.61364510    -0.12200
C1815       C  0.47816257  0.30484825  0.64532823     0.01900
C1816       C  0.50042754  0.32446385  0.66319883    -0.00400
C1817       C  0.52251147  0.34728301  0.64878005    -0.12200
C1818       C  0.52504781  0.34813089  0.61691744     0.01800
H1819       H  0.46402599  0.28960693  0.60015151     0.14800
H1820       H  0.53886118  0.36327365  0.66241041     0.14800
C1821       C  0.55009179  0.36998885  0.60339045     0.36400
C1822       C  0.45320598  0.28298806  0.65909646     0.36300
N1823       N  0.57029228  0.38759453  0.59282431    -0.43900
N1824       N  0.43323355  0.26563150  0.67031900    -0.43900
C1825       C  0.56195353  0.36705506  0.74562382    -0.00400
C1826       C  0.56481471  0.37597028  0.77589481    -0.12200
C1827       C  0.58964865  0.39855752  0.78637096     0.01900
C1828       C  0.61184716  0.41338617  0.76591110    -0.00400
C1829       C  0.60856119  0.40456141  0.73541361    -0.12200
C1830       C  0.58427369  0.38114832  0.72546068     0.01800
H1831       H  0.54794881  0.36441893  0.79173277     0.14800
H1832       H  0.62539233  0.41548457  0.71940752     0.14800
C1833       C  0.58377762  0.37075043  0.69536737     0.36400
C1834       C  0.59227409  0.40434048  0.81860467     0.36300
N1835       N  0.58404776  0.36239561  0.67143658    -0.43900
N1836       N  0.59399580  0.40848701  0.84455415    -0.43900
C1837       C  0.52085634  0.17372356  0.91984157    -0.00400
C1838       C  0.53782405  0.19855496  0.90440318    -0.12200
C1839       C  0.53794466  0.19983803  0.87267285     0.01900
C1840       C  0.52081921  0.17581189  0.85558458    -0.00400
C1841       C  0.50601007  0.15049097  0.87080604    -0.12200
C1842       C  0.50589573  0.14926087  0.90279174     0.01800
H1843       H  0.55030096  0.21732380  0.91730762     0.14800
H1844       H  0.49333225  0.13185239  0.85779251     0.14800
C1845       C  0.48903630  0.12295981  0.91736241     0.36400
C1846       C  0.55556090  0.22621718  0.85838168     0.36300
N1847       N  0.47563005  0.10169239  0.92876465    -0.43900
N1848       N  0.56953882  0.24743761  0.84707653    -0.43900
C1849       C  0.56863622  0.17799840  0.77163631    -0.00400
C1850       C  0.56594832  0.15229441  0.76760760    -0.12200
C1851       C  0.58884824  0.14995778  0.76095792     0.01900
C1852       C  0.61527219  0.17392689  0.75649224    -0.00400
C1853       C  0.61754884  0.19964202  0.76029492    -0.12200
C1854       C  0.59510545  0.20181321  0.76906902     0.01800
H1855       H  0.54578939  0.13376263  0.76981623     0.14800
H1856       H  0.63707302  0.21855336  0.75673290     0.14800
C1857       C  0.60036817  0.22871760  0.77709657     0.36400
C1858       C  0.58411477  0.12255043  0.76040281     0.36300
N1859       N  0.60460820  0.25022769  0.78373397    -0.43900
N1860       N  0.57948976  0.10023524  0.76010965    -0.43900
C1861       C  0.50533072  0.21736761  0.76159409    -0.00400
C1862       C  0.52220486  0.23551918  0.73858333    -0.12200
C1863       C  0.52145582  0.25885610  0.73086308     0.01900
C1864       C  0.50261788  0.26458976  0.74530555    -0.00400
C1865       C  0.48327749  0.24468740  0.76553983    -0.12200
C1866       C  0.48415853  0.22112451  0.77325104     0.01800
H1867       H  0.53632618  0.23196351  0.72599660     0.14800
H1868       H  0.46746785  0.24728775  0.77569803     0.14800
C1869       C  0.46305897  0.20119189  0.79332819     0.36400
C1870       C  0.54113560  0.27699361  0.70829961     0.36300
N1871       N  0.44607783  0.18519086  0.80932995    -0.43900
N1872       N  0.55694052  0.29151520  0.69033107    -0.43900
C1873       C  0.61483294  0.06024187  0.98950280    -0.00400
C1874       C  0.62409672  0.08223584  0.96898370    -0.12200
C1875       C  0.64037563  0.10946797  0.97902566     0.01900
C1876       C  0.65023067  0.11335660  0.51416402    -0.00400
C1877       C  0.64279156  0.09051071  0.53271989    -0.12200
C1878       C  0.62603530  0.06372296  0.52148801     0.01800
H1879       H  0.61751617  0.07815562  0.94537286     0.14800
H1880       H  0.64920085  0.09364571  0.55640501     0.14800
C1881       C  0.61796254  0.04097699  0.54204568     0.36400
C1882       C  0.64774234  0.13144921  0.95757435     0.36300
N1883       N  0.61145515  0.02266990  0.55840551    -0.43900
N1884       N  0.65362067  0.14908250  0.94041751    -0.43900
C1885       C  0.47360641  0.06614271  0.53705904    -0.00400
C1886       C  0.45415636  0.07097397  0.02013073    -0.12200
C1887       C  0.46073626  0.09656850  0.00812160     0.01900
C1888       C  0.48892755  0.11874488  0.51405823    -0.00400
C1889       C  0.50487957  0.11591904  0.53643413    -0.12200
C1890       C  0.49771632  0.09008490  0.54775202     0.01800
H1891       H  0.43495529  0.05268007  0.01352080     0.14800
H1892       H  0.52350631  0.13403023  0.54461274     0.14800
C1893       C  0.51574789  0.08896432  0.57020223     0.36400
C1894       C  0.44121841  0.09812951  0.98850263     0.36300
N1895       N  0.53020140  0.08803037  0.58813195    -0.43900
N1896       N  0.42551380  0.09952926  0.97297788    -0.43900
C1897       C  0.61311312  0.06128938  0.79073778    -0.00400
C1898       C  0.61743166  0.08367710  0.80854445    -0.12200
C1899       C  0.63368885  0.11061126  0.79792551     0.01900
C1900       C  0.64599111  0.11552575  0.76900695    -0.00400
C1901       C  0.64284607  0.09350076  0.75161530    -0.12200
C1902       C  0.62675594  0.06644301  0.76231228     0.01800
H1903       H  0.60707495  0.08008680  0.83030957     0.14800
H1904       H  0.65213027  0.09739711  0.72916958     0.14800
C1905       C  0.62325477  0.04452120  0.74270139     0.36400
C1906       C  0.63556739  0.13273697  0.81590256     0.36300
N1907       N  0.62062593  0.02711864  0.72681255    -0.43900
N1908       N  0.63700710  0.15058221  0.82999772    -0.43900
C1909       C  0.46786988  0.06563844  0.74487846    -0.00400
C1910       C  0.48286593  0.08872979  0.72610424    -0.12200
C1911       C  0.49001108  0.11496933  0.73595408     0.01900
C1912       C  0.48232191  0.11862044  0.76532251    -0.00400
C1913       C  0.46666366  0.09555695  0.78388888    -0.12200
C1914       C  0.45908591  0.06911603  0.77381471     0.01800
H1915       H  0.48969111  0.08638609  0.70386034     0.14800
H1916       H  0.46113371  0.09833778  0.80666735     0.14800
C1917       C  0.44396562  0.04631874  0.79444394     0.36400
C1918       C  0.50688170  0.13805889  0.71623658     0.36300
N1919       N  0.43187594  0.02808995  0.81105070    -0.43900
N1920       N  0.52049298  0.15657235  0.70049518    -0.43900
C1921       C  0.51903046  0.85642545  0.76381940    -0.00400
C1922       C  0.51309779  0.85823324  0.79451130    -0.12200
C1923       C  0.52026931  0.88363242  0.80744828     0.01900
C1924       C  0.53497493  0.90786222  0.78998646    -0.00400
C1925       C  0.54244013  0.90619906  0.76007178    -0.12200
C1926       C  0.53385513  0.88079008  0.74659810     0.01800
H1927       H  0.50133546  0.83959741  0.80781339     0.14800
H1928       H  0.55338693  0.92473989  0.74642058     0.14800
C1929       C  0.53929158  0.88057958  0.71459172     0.36400
C1930       C  0.51191775  0.88424777  0.83834783     0.36300
N1931       N  0.54365587  0.88154065  0.68876212    -0.43900
N1932       N  0.50510676  0.88467344  0.86307797    -0.43900
C1933       C  0.53508961  0.59664855  0.74015471    -0.00400
C1934       C  0.51956277  0.60278163  0.72028466    -0.12200
C1935       C  0.51001163  0.62000318  0.72941019     0.01900
C1936       C  0.51568321  0.63118253  0.75904398    -0.00400
C1937       C  0.53137151  0.62532986  0.77880164    -0.12200
C1938       C  0.54123365  0.60841550  0.76962324     0.01800
H1939       H  0.51436255  0.59361070  0.69777497     0.14800
H1940       H  0.53505470  0.63320635  0.80191749     0.14800
C1941       C  0.55560281  0.60169234  0.79180037     0.36400
C1942       C  0.49301178  0.62454892  0.70869014     0.36300
N1943       N  0.56696918  0.59622227  0.80969561    -0.43900
N1944       N  0.47933573  0.62817349  0.69214124    -0.43900
C1945       C  0.49106105  0.70669293  0.77260260    -0.00400
C1946       C  0.51251293  0.72692711  0.75437135    -0.12200
C1947       C  0.51401023  0.75183949  0.74740597     0.01900
C1948       C  0.49284126  0.75634481  0.75698085    -0.00400
C1949       C  0.47399790  0.73795995  0.77860530    -0.12200
C1950       C  0.47270399  0.71354154  0.78615689     0.01800
H1951       H  0.52854629  0.72387210  0.74584426     0.14800
H1952       H  0.46016053  0.74254407  0.79035893     0.14800
C1953       C  0.45220093  0.69612181  0.80840094     0.36400
C1954       C  0.53821270  0.77296755  0.73182188     0.36300
N1955       N  0.43592929  0.68262001  0.82652699    -0.43900
N1956       N  0.55781677  0.79011797  0.71981744    -0.43900
C1957       C  0.38934684  0.45275748  0.78327460    -0.00400
C1958       C  0.37103919  0.43593636  0.76024668    -0.12200
C1959       C  0.35328760  0.44277478  0.74592732     0.01900
C1960       C  0.35370699  0.46669469  0.75469600    -0.00400
C1961       C  0.37022788  0.48219214  0.77931419    -0.12200
C1962       C  0.38819322  0.47566526  0.79343135     0.01800
H1963       H  0.37143992  0.41810256  0.75247075     0.14800
H1964       H  0.36997373  0.50022053  0.78666425     0.14800
C1965       C  0.40544984  0.49313242  0.81789231     0.36400
C1966       C  0.33527646  0.42537441  0.72193954     0.36300
N1967       N  0.41925901  0.50721749  0.83744661    -0.43900
N1968       N  0.32075421  0.41140023  0.70274523    -0.43900
C1969       C  0.38170240  0.55291453  0.74693333    -0.00400
C1970       C  0.37925812  0.57535251  0.75589276    -0.12200
C1971       C  0.40160268  0.59965177  0.76758097     0.01900
C1972       C  0.42808749  0.60317809  0.76862626    -0.00400
C1973       C  0.43104426  0.58148452  0.75882487    -0.12200
C1974       C  0.40848868  0.55651328  0.74873646     0.01800
H1975       H  0.35973119  0.57426692  0.75407118     0.14800
H1976       H  0.45131379  0.58396232  0.75892228     0.14800
C1977       C  0.41457228  0.53558658  0.74140546     0.36400
C1978       C  0.39607088  0.61980345  0.77976284     0.36300
N1979       N  0.42060472  0.51958224  0.73562255    -0.43900
N1980       N  0.39103510  0.63552824  0.78954998    -0.43900
C1981       C  0.27747563  0.48715918  0.74431703    -0.00400
C1982       C  0.25792329  0.48587333  0.72327048    -0.12200
C1983       C  0.23505696  0.48720703  0.73262117     0.01900
C1984       C  0.22989960  0.48858506  0.76385607    -0.00400
C1985       C  0.24787704  0.48699337  0.78500254    -0.12200
C1986       C  0.27138399  0.48670949  0.77564300     0.01800
H1987       H  0.26034240  0.48530674  0.69949687     0.14800
H1988       H  0.24505357  0.48729772  0.80909765     0.14800
C1989       C  0.28969570  0.48748840  0.79908216     0.36400
C1990       C  0.21872220  0.48957158  0.70892790     0.36300
N1991       N  0.30437599  0.48820422  0.81786999    -0.43900
N1992       N  0.20636759  0.49210839  0.68958668    -0.43900
C1993       C  0.19700791  0.55541694  0.75973438    -0.00400
C1994       C  0.20782050  0.57691962  0.78078666    -0.12200
C1995       C  0.20887737  0.60148678  0.77431924     0.01900
C1996       C  0.19866446  0.60478895  0.74608658    -0.00400
C1997       C  0.18783105  0.58298665  0.72502990    -0.12200
C1998       C  0.18695686  0.55846392  0.73162598     0.01800
H1999       H  0.21509038  0.57430862  0.80263838     0.14800
H2000       H  0.17988090  0.58497881  0.70337490     0.14800
C2001       C  0.17506070  0.53645570  0.70957891     0.36400
C2002       C  0.21959097  0.62222444  0.79782669     0.36300
N2003       N  0.16548512  0.51883215  0.69188849    -0.43900
N2004       N  0.22852238  0.63879089  0.81674237    -0.43900
C2005       C  0.35875940  0.85655688  0.74855863    -0.00400
C2006       C  0.35492624  0.87719818  0.76012888    -0.12200
C2007       C  0.37224588  0.90465393  0.75118845     0.01900
C2008       C  0.39418830  0.91168904  0.73069617    -0.00400
C2009       C  0.39644020  0.89052053  0.71740933    -0.12200
C2010       C  0.37881695  0.86313278  0.72595403     0.01800
H2011       H  0.33920936  0.87202128  0.77724263     0.14800
H2012       H  0.41256917  0.89542676  0.70090011     0.14800
C2013       C  0.38190388  0.84223200  0.71131468     0.36400
C2014       C  0.36786281  0.92512474  0.76472741     0.36300
N2015       N  0.38439424  0.82576986  0.69887566    -0.43900
N2016       N  0.36416199  0.94143651  0.77554172    -0.43900
C2017       C  0.38592274  0.79754366  0.76718850    -0.00400
C2018       C  0.38478337  0.78202216  0.74157004    -0.12200
C2019       C  0.40800437  0.78165717  0.73162736     0.01900
C2020       C  0.43344545  0.79794194  0.74645275    -0.00400
C2021       C  0.43485026  0.81328652  0.77203322    -0.12200
C2022       C  0.41138255  0.81277375  0.78293948     0.01800
H2023       H  0.36578142  0.77029383  0.72879913     0.14800
H2024       H  0.45414803  0.82478321  0.78436721     0.14800
C2025       C  0.41404555  0.82662900  0.81138064     0.36400
C2026       C  0.40504439  0.76397514  0.70653454     0.36300
N2027       N  0.41666731  0.83790794  0.83419746    -0.43900
N2028       N  0.40242510  0.74951461  0.68661824    -0.43900
C2029       C  0.28288514  0.75700629  0.76714025    -0.00400
C2030       C  0.26251305  0.74092676  0.78902795    -0.12200
C2031       C  0.23861422  0.71583288  0.78147847     0.01900
C2032       C  0.23353197  0.70639468  0.75091589    -0.00400
C2033       C  0.25420416  0.72236553  0.72930409    -0.12200
C2034       C  0.27792079  0.74732674  0.73675015     0.01800
H2035       H  0.26524437  0.74669702  0.81268683     0.14800
H2036       H  0.25299037  0.71494162  0.70637379     0.14800
C2037       C  0.29748170  0.76186555  0.71254618     0.36400
C2038       C  0.22092535  0.69970489  0.80634298     0.36300
N2039       N  0.31299404  0.77347696  0.69305913    -0.43900
N2040       N  0.20707032  0.68721730  0.82667283    -0.43900
C2041       C  0.53373714  0.90623526  0.99393451    -0.00400
C2042       C  0.51999772  0.88441708  0.97331943    -0.12200
C2043       C  0.51124157  0.85743230  0.98190136     0.01900
C2044       C  0.51926024  0.85227252  0.50873400    -0.00400
C2045       C  0.53414234  0.87437244  0.52870606    -0.12200
C2046       C  0.54326800  0.90136995  0.51957534     0.01800
H2047       H  0.51573102  0.88843195  0.95042898     0.14800
H2048       H  0.53785928  0.87039981  0.55185321     0.14800
C2049       C  0.55746016  0.92308651  0.54165294     0.36400
C2050       C  0.49703766  0.83615738  0.95946263     0.36300
N2051       N  0.56881031  0.94043432  0.55944182    -0.43900
N2052       N  0.48605324  0.81998678  0.94045377    -0.43900
C2053       C  0.48933252  0.80859655  0.60216507    -0.00400
C2054       C  0.51509133  0.82173972  0.61688824    -0.12200
C2055       C  0.51689678  0.82244298  0.64876115     0.01900
C2056       C  0.49270275  0.81156369  0.66644018    -0.00400
C2057       C  0.46720257  0.80049162  0.65169834    -0.12200
C2058       C  0.46517089  0.79769819  0.61994108     0.01800
H2059       H  0.53370705  0.82934043  0.60344783     0.14800
H2060       H  0.44860433  0.79147605  0.66521160     0.14800
C2061       C  0.43816819  0.77976380  0.60706793     0.36400
C2062       C  0.54358460  0.83285600  0.66266880     0.36300
N2063       N  0.41631280  0.76453765  0.59769568    -0.43900
N2064       N  0.56508691  0.84136452  0.67363416    -0.43900
C2065       C  0.52313700  0.63006166  0.51253185    -0.00400
C2066       C  0.53028954  0.61706623  0.99114707    -0.12200
C2067       C  0.54009365  0.60049912  0.00152669     0.01900
C2068       C  0.54330349  0.59682957  0.53336262    -0.00400
C2069       C  0.53841014  0.61258840  0.55393116    -0.12200
C2070       C  0.52904097  0.62964305  0.54380875     0.01800
H2071       H  0.52614801  0.61715156  0.96703369     0.14800
H2072       H  0.54138005  0.61110775  0.57811981     0.14800
C2073       C  0.52500205  0.64555473  0.56638461     0.36400
C2074       C  0.54348691  0.58352264  0.97971858     0.36300
N2075       N  0.52242799  0.65836176  0.58504887    -0.43900
N2076       N  0.54613708  0.56982294  0.96232985    -0.43900
C2077       C  0.48912424  0.64351488  0.85327806    -0.00400
C2078       C  0.51447914  0.66070021  0.86777326    -0.12200
C2079       C  0.51686494  0.66017900  0.89940581     0.01900
C2080       C  0.49346151  0.64254787  0.91711434    -0.00400
C2081       C  0.46901685  0.62308595  0.90239225    -0.12200
C2082       C  0.46665980  0.62344217  0.87055198     0.01800
H2083       H  0.53205114  0.67565164  0.85447798     0.14800
H2084       H  0.45107603  0.60925086  0.91581949     0.14800
C2085       C  0.44031365  0.60486967  0.85657339     0.36400
C2086       C  0.54310225  0.67907700  0.91345739     0.36300
N2087       N  0.41916311  0.58991736  0.84545380    -0.43900
N2088       N  0.56410392  0.69414868  0.92479253    -0.43900
C2089       C  0.49925109  0.70483992  0.50219862    -0.00400
C2090       C  0.50238856  0.72608853  0.98118560    -0.12200
C2091       C  0.50646713  0.75006439  0.48900552     0.01900
C2092       C  0.50018033  0.75387366  0.51912220    -0.00400
C2093       C  0.49365493  0.73267303  0.54030894    -0.12200
C2094       C  0.49368471  0.70895531  0.53246463     0.01800
H2095       H  0.50740280  0.72509792  0.95784374     0.14800
H2096       H  0.48655183  0.73328443  0.56292728     0.14800
C2097       C  0.48594702  0.68839984  0.55588890     0.36400
C2098       C  0.50408622  0.76758422  0.96510675     0.36300
N2099       N  0.47937405  0.67213855  0.57494299    -0.43900
N2100       N  0.50732662  0.78233016  0.94526356    -0.43900
C2101       C  0.35176434  0.46865943  0.50196891    -0.00400
C2102       C  0.36585010  0.47822892  0.47424998    -0.12200
C2103       C  0.38474444  0.47088862  0.46478154     0.01900
C2104       C  0.38912082  0.45293322  0.98445700    -0.00400
C2105       C  0.37175406  0.43880637  0.00925236    -0.12200
C2106       C  0.35303260  0.44586982  0.02019982     0.01800
H2107       H  0.36291185  0.49237684  0.46059220     0.14800
H2108       H  0.37385575  0.42331093  0.02113484     0.14800
C2109       C  0.33678083  0.43208177  0.04683773     0.36400
C2110       C  0.39818809  0.48087582  0.43568878     0.36300
N2111       N  0.32370397  0.42087046  0.06812257    -0.43900
N2112       N  0.40877701  0.48869585  0.41226093    -0.43900
C2113       C  0.34351708  0.50792055  0.59448562    -0.00400
C2114       C  0.35322850  0.49264610  0.60897208    -0.12200
C2115       C  0.35381928  0.49156154  0.64094545     0.01900
C2116       C  0.34474515  0.50613095  0.65840406    -0.00400
C2117       C  0.33912253  0.52452822  0.64368226    -0.12200
C2118       C  0.33840583  0.52552629  0.61204163     0.01800
H2119       H  0.35850546  0.48016173  0.59549030     0.14800
H2120       H  0.33324022  0.53669636  0.65701725     0.14800
C2121       C  0.33065683  0.54353552  0.59812103     0.36400
C2122       C  0.36219918  0.47420882  0.65499701     0.36300
N2123       N  0.32424999  0.55772651  0.58681419    -0.43900
N2124       N  0.36946210  0.46053230  0.66581194    -0.43900
C2125       C  0.37999751  0.55653310  0.50977490    -0.00400
C2126       C  0.39996699  0.56848961  0.53282264    -0.12200
C2127       C  0.42610473  0.59130895  0.52695403     0.01900
C2128       C  0.43266390  0.60286472  0.49754750    -0.00400
C2129       C  0.41373480  0.58985358  0.97592208    -0.12200
C2130       C  0.38821646  0.56602435  0.98208414     0.01800
H2131       H  0.39519331  0.55983394  0.55559829     0.14800
H2132       H  0.41786310  0.59881388  0.95335558     0.14800
C2133       C  0.36891531  0.55320891  0.95729972     0.36400
C2134       C  0.44584910  0.60203283  0.55152261     0.36300
N2135       N  0.35355679  0.54303329  0.93730384    -0.43900
N2136       N  0.46114918  0.60994228  0.57174947    -0.43900
C2137       C  0.17815643  0.50848935  0.91189734    -0.00400
C2138       C  0.20199804  0.52868079  0.89688170    -0.12200
C2139       C  0.20393588  0.52881599  0.86521226     0.01900
C2140       C  0.18133948  0.50902432  0.84787204    -0.00400
C2141       C  0.15637232  0.49093719  0.86256925    -0.12200
C2142       C  0.15465326  0.49041397  0.89452001     0.01800
H2143       H  0.22006351  0.54284905  0.91012559     0.14800
H2144       H  0.13899204  0.47565238  0.84933155     0.14800
C2145       C  0.12937145  0.46966714  0.90863934     0.36400
C2146       C  0.23015885  0.54784757  0.85124304     0.36300
N2147       N  0.10869163  0.45283768  0.91912090    -0.43900
N2148       N  0.25125454  0.56281169  0.84006596    -0.43900
C2149       C  0.27582332  0.49216910  0.51028888    -0.00400
C2150       C  0.25796137  0.49318146  0.53203160    -0.12200
C2151       C  0.23408365  0.49307585  0.52370084     0.01900
C2152       C  0.22702418  0.49241547  0.49268795    -0.00400
C2153       C  0.24448744  0.48838510  0.97690242    -0.12200
C2154       C  0.26819895  0.49041774  0.47931055     0.01800
H2155       H  0.26272124  0.49568264  0.55590798     0.14800
H2156       H  0.23762118  0.48285685  0.95374886     0.14800
C2157       C  0.28216308  0.48246261  0.96130823     0.36400
C2158       C  0.21785100  0.49484027  0.54793377     0.36300
N2159       N  0.29305347  0.47784733  0.94201922    -0.43900
N2160       N  0.20491654  0.49606557  0.56752215    -0.43900
C2161       C  0.17598814  0.64410434  0.66525298    -0.00400
C2162       C  0.18450749  0.62869542  0.64886149    -0.12200
C2163       C  0.18643322  0.63037763  0.61695755     0.01900
C2164       C  0.17977704  0.64772168  0.60118574    -0.00400
C2165       C  0.16943286  0.66158355  0.61739913    -0.12200
C2166       C  0.16722411  0.65968605  0.64916028     0.01800
H2167       H  0.19187275  0.61721518  0.66105077     0.14800
H2168       H  0.16434719  0.67497020  0.60533775     0.14800
C2169       C  0.15753300  0.67525815  0.66502477     0.36400
C2170       C  0.19769586  0.61619981  0.60118137     0.36300
N2171       N  0.14988938  0.68775033  0.67791148    -0.43900
N2172       N  0.20685405  0.60492946  0.58857993    -0.43900
C2173       C  0.19082474  0.55760322  0.49469690    -0.00400
C2174       C  0.16602069  0.55653246  0.50111067    -0.12200
C2175       C  0.16555539  0.57973893  0.51079395     0.01900
C2176       C  0.19063962  0.60518545  0.51531923    -0.00400
C2177       C  0.21545685  0.60594584  0.50915933    -0.12200
C2178       C  0.21571233  0.58318369  0.49765763     0.01800
H2179       H  0.14654367  0.53726913  0.49904259     0.14800
H2180       H  0.23520202  0.62454573  0.51290334     0.14800
C2181       C  0.24284034  0.59095446  0.98735314     0.36400
C2182       C  0.13864466  0.57599988  0.51516178     0.36300
N2183       N  0.26391680  0.59504058  0.97875173    -0.43900
N2184       N  0.11659971  0.57187202  0.51871845    -0.43900
C2185       C  0.37182136  0.85614386  0.50679822    -0.00400
C2186       C  0.35810360  0.86977704  0.51592010    -0.12200
C2187       C  0.37248165  0.89614820  0.52923379     0.01900
C2188       C  0.40118994  0.90944737  0.53380091    -0.00400
C2189       C  0.41483574  0.89608826  0.52469905    -0.12200
C2190       C  0.40083803  0.87005810  0.51135553     0.01800
H2191       H  0.33604937  0.85997370  0.51246189     0.14800
H2192       H  0.43703528  0.90634934  0.52771173     0.14800
C2193       C  0.41770776  0.85892621  0.50336952     0.36400
C2194       C  0.35720580  0.90853401  0.53915934     0.36300
N2195       N  0.43251877  0.85147065  0.49699770    -0.43900
N2196       N  0.34488162  0.91833274  0.54733936    -0.43900
C2197       C  0.34910637  0.81492721  0.91195044    -0.00400
C2198       C  0.34809285  0.83633585  0.89744665    -0.12200
C2199       C  0.34860093  0.83815292  0.86550257     0.01900
C2200       C  0.35045504  0.81850182  0.84795986    -0.00400
C2201       C  0.35387400  0.79867878  0.86258128    -0.12200
C2202       C  0.35268959  0.79637119  0.89422204     0.01800
H2203       H  0.34512144  0.85050618  0.91096122     0.14800
H2204       H  0.35477221  0.78323699  0.84903134     0.14800
C2205       C  0.35191495  0.77274898  0.90720639     0.36400
C2206       C  0.34550838  0.85918595  0.85123754     0.36300
N2207       N  0.35076925  0.75314184  0.91634792    -0.43900
N2208       N  0.34319015  0.87624130  0.84000788    -0.43900
C2209       C  0.43250585  0.78572087  0.51378238    -0.00400
C2210       C  0.41880707  0.79401897  0.53354822    -0.12200
C2211       C  0.39534283  0.79414039  0.52421028     0.01900
C2212       C  0.38228547  0.78989952  0.99536663    -0.00400
C2213       C  0.39637218  0.78288565  0.97476511    -0.12200
C2214       C  0.41824849  0.77994817  0.98430144     0.01800
H2215       H  0.42652387  0.80071377  0.55637555     0.14800
H2216       H  0.39036747  0.77964769  0.95113660     0.14800
C2217       C  0.43020930  0.77058589  0.96204193     0.36400
C2218       C  0.38146763  0.80179181  0.54598475     0.36300
N2219       N  0.43910656  0.76249997  0.94399635    -0.43900
N2220       N  0.37030169  0.80791382  0.56337256    -0.43900
C2221       C  0.28652434  0.75690973  0.49324632    -0.00400
C2222       C  0.27132854  0.75842926  0.51776260    -0.12200
C2223       C  0.24621697  0.73525807  0.52724269     0.01900
C2224       C  0.23599298  0.70949586  0.51264002    -0.00400
C2225       C  0.24479442  0.71208720  0.98506705    -0.12200
C2226       C  0.26995560  0.73496587  0.97655716     0.01800
H2227       H  0.27894723  0.77732804  0.53026355     0.14800
H2228       H  0.23563549  0.69435566  0.97014924     0.14800
C2229       C  0.28234230  0.73170825  0.94945781     0.36400
C2230       C  0.23099697  0.73912576  0.55097619     0.36300
N2231       N  0.29121804  0.72828614  0.92736162    -0.43900
N2232       N  0.21887509  0.74242615  0.56994907    -0.43900
C2233       C  0.07764824  0.59895000  0.98406546    -0.00400
C2234       C  0.08511429  0.61555432  0.50862499    -0.12200
C2235       C  0.11126456  0.63271691  0.52148813     0.01900
C2236       C  0.13489158  0.63686839  0.50620661    -0.00400
C2237       C  0.12754984  0.62506900  0.97761353    -0.12200
C2238       C  0.10118615  0.60670446  0.96601308     0.01800
H2239       H  0.06695323  0.61165954  0.52111948     0.14800
H2240       H  0.14560737  0.62977127  0.96435141     0.14800
C2241       C  0.09888552  0.59598853  0.93565328     0.36400
C2242       C  0.11328429  0.64485503  0.55093925     0.36300
N2243       N  0.09698139  0.58751975  0.91124225    -0.43900
N2244       N  0.11472695  0.65449284  0.57457149    -0.43900
C2245       C  0.92468694  0.51986568  0.98944829    -0.00400
C2246       C  0.92399668  0.53006151  0.01828963    -0.12200
C2247       C  0.90175774  0.52195094  0.53360828     0.01900
C2248       C  0.87745952  0.50988155  0.51582877    -0.00400
C2249       C  0.87932772  0.50627803  0.48444655    -0.12200
C2250       C  0.90463877  0.51328439  0.47106365     0.01800
H2251       H  0.94302563  0.54226213  0.03097884     0.14800
H2252       H  0.86072546  0.49661182  0.47068419     0.14800
C2253       C  0.90524329  0.50782656  0.43905900     0.36400
C2254       C  0.90132992  0.52537635  0.56610587     0.36300
N2255       N  0.90578276  0.50340463  0.41342474    -0.43900
N2256       N  0.90179364  0.52812123  0.59224525    -0.43900
C2257       C  0.92210578  0.38115634  0.53635212    -0.00400
C2258       C  0.91695342  0.36152835  0.00995943    -0.12200
C2259       C  0.89031234  0.34564224  0.99770077     0.01900
C2260       C  0.86849036  0.34620324  0.51316422    -0.00400
C2261       C  0.87228899  0.35687609  0.54274728    -0.12200
C2262       C  0.89881577  0.37450941  0.55432537     0.01800
H2263       H  0.93445002  0.36418886  0.99703846     0.14800
H2264       H  0.85444197  0.35238970  0.55629917     0.14800
C2265       C  0.90153343  0.38561141  0.58456929     0.36400
C2266       C  0.88694761  0.33312657  0.96821353     0.36300
N2267       N  0.90376855  0.39455432  0.60878855    -0.43900
N2268       N  0.88468167  0.32330212  0.94451111    -0.43900
C2269       C  0.12877426  0.47085965  0.50735318    -0.00400
C2270       C  0.10511896  0.44759885  0.49580481    -0.12200
C2271       C  0.07910163  0.43823750  0.50887036     0.01900
C2272       C  0.07655014  0.45284799  0.53347429    -0.00400
C2273       C  0.10062636  0.47501236  0.54610366    -0.12200
C2274       C  0.12656102  0.48377546  0.53362885     0.01800
H2275       H  0.11113010  0.44110580  0.97534871     0.14800
H2276       H  0.09917848  0.48598629  0.56548365     0.14800
C2277       C  0.15052642  0.50628642  0.54814666     0.36400
C2278       C  0.05544222  0.41431150  0.49580676     0.36300
N2279       N  0.16955032  0.52432271  0.56006050    -0.43900
N2280       N  0.03650976  0.39500386  0.48546479    -0.43900
C2281       C  0.13341189  0.62478104  0.76060316    -0.00400
C2282       C  0.11109580  0.61836642  0.74142044    -0.12200
C2283       C  0.08382366  0.60182717  0.75167583     0.01900
C2284       C  0.07858524  0.59103384  0.78162764    -0.00400
C2285       C  0.10104655  0.59775447  0.80081774    -0.12200
C2286       C  0.12824403  0.61449346  0.79062509     0.01800
H2287       H  0.11502281  0.62594512  0.71817633     0.14800
H2288       H  0.09736172  0.58946151  0.82374157     0.14800
C2289       C  0.15035576  0.61951131  0.81097413     0.36400
C2290       C  0.06176253  0.59507729  0.73039623     0.36300
N2291       N  0.16771283  0.62316120  0.82768682    -0.43900
N2292       N  0.04408695  0.58963487  0.71331808    -0.43900
C2293       C  0.92582167  0.52677754  0.79133972    -0.00400
C2294       C  0.90307301  0.50957968  0.80977589    -0.12200
C2295       C  0.87631868  0.50162638  0.80073487     0.01900
C2296       C  0.87195647  0.51031149  0.77238388    -0.00400
C2297       C  0.89475475  0.52924098  0.75503433    -0.12200
C2298       C  0.92170012  0.53803658  0.76461818     0.01800
H2299       H  0.90610570  0.50136111  0.83071454     0.14800
H2300       H  0.89142290  0.53588158  0.73313637     0.14800
C2301       C  0.94443817  0.55676793  0.74539083     0.36400
C2302       C  0.85363795  0.48318513  0.82012109     0.36300
N2303       N  0.96267968  0.57191547  0.73007268    -0.43900
N2304       N  0.83576375  0.46870963  0.83619552    -0.43900
C2305       C  0.92559616  0.37094599  0.74481373    -0.00400
C2306       C  0.90385470  0.35491686  0.72475093    -0.12200
C2307       C  0.87699450  0.33756638  0.73558675     0.01900
C2308       C  0.87137108  0.33737811  0.76709055    -0.00400
C2309       C  0.89358384  0.35180266  0.78728904    -0.12200
C2310       C  0.92063286  0.36808025  0.77647901     0.01800
H2311       H  0.90772812  0.35666125  0.70041376     0.14800
H2312       H  0.88967104  0.35117040  0.81154646     0.14800
C2313       C  0.94260859  0.38308944  0.79822638     0.36400
C2314       C  0.85561092  0.32208569  0.71337047     0.36300
N2315       N  0.96032996  0.39498760  0.81556526    -0.43900
N2316       N  0.83865586  0.30959190  0.69541465    -0.43900
C2317       C  0.07526425  0.44959576  0.73998290    -0.00400
C2318       C  0.09281874  0.44576736  0.72112722    -0.12200
C2319       C  0.11967334  0.45392310  0.73068410     0.01900
C2320       C  0.12913942  0.46598792  0.75991905    -0.00400
C2321       C  0.11019176  0.46713611  0.77954035    -0.12200
C2322       C  0.08379145  0.45962676  0.76969553     0.01800
H2323       H  0.08597873  0.43755930  0.69838141     0.14800
H2324       H  0.11625260  0.47490769  0.80249800     0.14800
C2325       C  0.06590415  0.46287229  0.79037962     0.36400
C2326       C  0.13674228  0.45031471  0.70928606     0.36300
N2327       N  0.05157153  0.46550092  0.80689379    -0.43900
N2328       N  0.14944855  0.44651580  0.69154994    -0.43900
loop_ 
_geom_bond_atom_site_label_1 
_geom_bond_atom_site_label_2 
_geom_bond_distance 
_geom_bond_site_symmetry_2 
_ccdc_geom_bond_type 
In1           O3   2.254       .  S
In1           O4   2.256       .  S
In1          O12   2.224   1_655  S
In1           O6   2.268   1_655  S
In1           O8   2.245       .  S
In1           O9   2.257   1_655  S
In1          O10   2.247       .  S
In1          O13   2.263       .  S
C2            O8   1.259       .  A
C2           O10   1.260       .  A
C2         C1141   1.474       .  S
O3           C11   1.259       .  A
O4           C11   1.264       .  A
C5           O12   1.257       .  A
C5            O6   1.261       .  A
C5         C1153   1.470       .  S
C7            O9   1.261   1_655  A
C7           O13   1.262       .  A
C7           C33   1.474   1_655  S
C11          C24   1.470       .  S
In14         O16   2.250       .  S
In14         O17   2.271       .  S
In14         O25   2.249   1_655  S
In14         O19   2.246   1_655  S
In14         O21   2.250       .  S
In14         O22   2.259   1_655  S
In14         O23   2.241       .  S
In14         O26   2.255   1_655  S
C15          O21   1.261       .  A
C15          O23   1.261       .  A
C15        C1129   1.477       .  S
O16          C24   1.256       .  A
O17          C24   1.262       .  A
C18          O25   1.261       .  A
C18          O19   1.259       .  A
C18        C1120   1.482       .  S
C20          O22   1.263       .  A
C20          O26   1.261       .  A
C20          C46   1.473       .  S
In27         O29   2.247       .  S
In27         O30   2.255       .  S
In27         O38   2.220   1_455  S
In27         O32   2.264   1_455  S
In27         O34   2.255       .  S
In27         O35   2.253       .  S
In27         O36   2.236       .  S
In27         O39   2.261   1_455  S
C28          O34   1.263       .  A
C28          O36   1.261       .  A
C28        C1108   1.488       .  S
O29          C37   1.258       .  A
O30          C37   1.263       .  A
C31          O38   1.259       .  A
C31          O32   1.264       .  A
C31        C1093   1.480       .  S
C33          O35   1.262       .  A
C33          O39   1.263   1_455  A
C37        C1214   1.467       .  S
In40         O43   2.253       .  S
In40         O51   2.253   1_455  S
In40         O45   2.251   1_455  S
In40         O47   2.257       .  S
In40         O48   2.252       .  S
In40         O49   2.243       .  S
In40         O52   2.259       .  S
In40       O1206   2.257       .  S
C41          O47   1.261       .  A
C41          O49   1.259       .  A
C41        C1069   1.482       .  S
O42       In1204   2.255   1_554  S
O42        C1214   1.256       .  A
O43          C50   1.259       .  A
C44          O51   1.260       .  A
C44          O45   1.260       .  A
C44        C1081   1.480       .  S
C46          O48   1.261       .  A
C46          O52   1.263       .  A
C50        O1206   1.256       .  A
C50        C1201   1.465       .  S
C53          C59   1.532       .  S
C53        C1218   1.535       .  S
C53        C1221   1.555       .  S
C53        C2221   1.540       .  S
C54        C1217   1.537       .  S
C54          H61   1.087   1_556  S
C54        C1219   1.359       .  D
C55          C56   1.538       .  S
C55        C1218   1.359       .  D
C55        C1048   1.479       .  S
C56          C60   1.533       .  S
C56          C58   1.549       .  S
C56          H62   1.106       .  S
C57        C1217   1.559   1_554  S
C57          H63   1.082       .  S
C57        C1222   1.387   1_554  D
C58        C1221   1.382       .  D
C58        C2185   1.509       .  S
C59          H64   1.086       .  S
C59          C60   1.357       .  D
C60        C1033   1.476       .  S
C65          C66   1.551       .  S
C65          C71   1.537       .  S
C65          C69   1.537       .  S
C65        C1060   1.548       .  S
C66          H73   1.081       .  S
C66          C67   1.373       .  D
C67          C68   1.546       .  S
C67        C1012   1.515       .  S
C68          C72   1.529       .  S
C68          C70   1.539       .  S
C68          H74   1.104       .  S
C69        H1239   1.086   1_554  S
C69          C70   1.367       .  D
C70        C1072   1.479       .  S
C71          H76   1.084       .  S
C71          C72   1.362       .  D
C72        C1000   1.476       .  S
H75        C1233   1.086       .  S
C77          C83   1.537       .  S
C77        C1242   1.547       .  S
C77        C1245   1.542       .  S
C77        C2152   1.549       .  S
C78        C1241   1.547       .  S
C78          H85   1.083   1_556  S
C78        C1243   1.374       .  D
C79          C80   1.539       .  S
C79        C1242   1.374       .  D
C79        C2173   1.504       .  S
C80          C84   1.528       .  S
C80          C82   1.542       .  S
C80          H86   1.109       .  S
C81        C1241   1.540   1_554  S
C81          H87   1.086       .  S
C81        C1246   1.367   1_554  D
C82        C1245   1.368       .  D
C82        C2269   1.481       .  S
C83          H88   1.078       .  S
C83          C84   1.359       .  D
C84         C973   1.475       .  S
C89          C90   1.544       .  S
C89          C95   1.543       .  S
C89          C93   1.550       .  S
C89         C985   1.549       .  S
C90          H97   1.086   1_554  S
C90          C91   1.368       .  D
C91          C92   1.533       .  S
C91         C961   1.488       .  S
C92          C96   1.524       .  S
C92          C94   1.531       .  S
C92          H98   1.111       .  S
C93        H1263   1.084   1_554  S
C93          C94   1.370       .  D
C94         C937   1.475       .  S
C95         H100   1.082       .  S
C95          C96   1.359       .  D
C96         C949   1.474       .  S
H99        C1257   1.085       .  S
C101        C102   1.540       .  S
C101        C105   1.545   1_556  S
C101       C1271   1.543       .  S
C101        C925   1.545   1_556  S
C102        H109   1.086   1_556  S
C102       C1267   1.359       .  D
C103        C104   1.537       .  S
C103       C1266   1.359       .  D
C103       C2128   1.478       .  S
C104        C108   1.533       .  S
C104       C1270   1.545       .  S
C104        H110   1.111       .  S
C105        H111   1.084       .  S
C105        C106   1.374   1_554  D
C106       C1268   1.548       .  S
C106        C901   1.496   1_556  S
C107       C1265   1.539       .  S
C107        H112   1.078       .  S
C107        C108   1.359       .  D
C108        C916   1.480       .  S
C113        C114   1.539       .  S
C113        C119   1.538       .  S
C113        C117   1.551       .  S
C113        C928   1.545       .  S
C114        H121   1.085       .  S
C114        C115   1.369       .  D
C115        C116   1.541       .  S
C115       C1045   1.494       .  S
C116        C120   1.537       .  S
C116        C118   1.535       .  S
C116        H122   1.111       .  S
C117       H1287   1.084       .  S
C117        C118   1.370       .  D
C118        C880   1.484       .  S
C119        H124   1.083       .  S
C119        C120   1.357       .  D
C120        C889   1.481       .  S
H123       C1281   1.084       .  S
C125        C126   1.542       .  S
C125        C131   1.540       .  S
C125        C129   1.544       .  S
C125        C865   1.542       .  S
C126        H133   1.086       .  S
C126        C127   1.363       .  D
C127        C128   1.536       .  S
C127        C841   1.478       .  S
C128        C132   1.534       .  S
C128        C130   1.544       .  S
C128        H134   1.104       .  S
C129        H135   1.085       .  S
C129        C130   1.371       .  D
C130        C853   1.511       .  S
C131        H136   1.081       .  S
C131        C132   1.362       .  D
C132       C1036   1.474       .  S
C137        C138   1.551       .  S
C137        C143   1.539       .  S
C137        C141   1.539       .  S
C137        C868   1.547       .  S
C138        H145   1.085       .  S
C138        C139   1.372       .  D
C139        C140   1.534       .  S
C139       C1117   1.482       .  S
C140        C144   1.532       .  S
C140        C142   1.539       .  S
C140        H146   1.110       .  S
C141        H147   1.085       .  S
C141        C142   1.369       .  D
C142        C832   1.495       .  S
C143        H148   1.082       .  S
C143        C144   1.358       .  D
C144        C997   1.479       .  S
C149        C150   1.540       .  S
C149        C155   1.543       .  S
C149        C153   1.548       .  S
C149        C820   1.546       .  S
C150        H157   1.079       .  S
C150        C151   1.359       .  D
C151        C152   1.528       .  S
C151        C976   1.475       .  S
C152        C156   1.526       .  S
C152        C154   1.545       .  S
C152        H158   1.110       .  S
C153        H159   1.084       .  S
C153        C154   1.377       .  D
C154       C1156   1.500       .  S
C155        H160   1.086       .  S
C155        C156   1.359       .  D
C156        C829   1.474       .  S
C161        C162   1.541       .  S
C161        C167   1.535       .  S
C161        C165   1.546       .  S
C161        C817   1.548       .  S
C162        H169   1.086       .  S
C162        C163   1.366       .  D
C163        C164   1.541       .  S
C163        C796   1.480       .  S
C164        C168   1.527       .  S
C164        C166   1.546       .  S
C164        H170   1.096       .  S
C165        H171   1.082       .  S
C165        C166   1.382       .  D
C166        C805   1.521       .  S
C167        H172   1.086       .  S
C167        C168   1.353       .  D
C168        C952   1.479       .  S
C173        C174   1.537       .  S
C173        C179   1.539       .  S
C173        C177   1.553       .  S
C173        C781   1.540       .  S
C174        H181   1.087       .  S
C174        C175   1.363       .  D
C175        C176   1.530       .  S
C175        C913   1.484       .  S
C176        C180   1.540       .  S
C176        C178   1.535       .  S
C176        H182   1.110       .  S
C177        H183   1.082       .  S
C177        C178   1.372       .  D
C178        C772   1.482       .  S
C179        H184   1.085       .  S
C179        C180   1.364       .  D
C180        C808   1.492       .  S
C185        C186   1.540       .  S
C185        C191   1.540       .  S
C185        C189   1.553       .  S
C185        C784   1.543       .  S
C186        H193   1.086       .  S
C186        C187   1.369       .  D
C187        C188   1.534       .  S
C187        C757   1.481       .  S
C188        C192   1.535       .  S
C188        C190   1.531       .  S
C188        H194   1.111       .  S
C189        H195   1.084       .  S
C189        C190   1.361       .  D
C190        C856   1.482       .  S
C191        H196   1.085       .  S
C191        C192   1.365       .  D
C192        C892   1.479       .  S
In197       O199   2.255       .  S
In197       O200   2.258       .  S
In197       O208   2.208       .  S
In197       O202   2.272       .  S
In197       O204   2.262   1_565  S
In197       O205   2.255       .  S
In197       O206   2.246   1_565  S
In197       O209   2.257       .  S
C198        O204   1.261       .  A
C198        O206   1.261       .  A
C198        C745   1.486       .  S
O199        C207   1.258       .  A
O200        C207   1.262       .  A
C201        O208   1.258       .  A
C201        O202   1.264       .  A
C201        C844   1.484       .  S
C203        O205   1.263       .  A
C203        O209   1.263       .  A
C203        C229   1.474       .  S
C207        C220   1.469       .  S
In210       O212   2.252       .  S
In210       O213   2.265       .  S
In210       O221   2.248       .  S
In210       O215   2.236       .  S
In210       O217   2.244   1_565  S
In210       O218   2.245       .  S
In210       O219   2.221   1_565  S
In210       O222   2.254       .  S
C211        O217   1.261       .  A
C211        O219   1.261       .  A
C211        C733   1.475       .  S
O212        C220   1.257       .  A
O213        C220   1.262       .  A
C214        O221   1.260       .  A
C214        O215   1.260       .  A
C214        C760   1.473       .  S
C216        O218   1.262       .  A
C216        O222   1.262       .  A
C216        C242   1.468       .  S
In223       O225   2.249       .  S
In223       O226   2.252       .  S
In223       O234   2.232   1_565  S
In223       O228   2.269   1_565  S
In223       O230   2.282       .  S
In223       O231   2.260       .  S
In223       O232   2.229       .  S
In223       O235   2.261       .  S
C224        O230   1.265       .  A
C224        O232   1.260       .  A
C224       C1024   1.488       .  S
O225        C233   1.261       .  A
O226        C233   1.264       .  A
C227        O234   1.260       .  A
C227        O228   1.265       .  A
C227        C721   1.490       .  S
C229        O231   1.261       .  A
C229        O235   1.261       .  A
C233       C1410   1.468       .  S
In236       O239   2.258       .  S
In236       O247   2.244   1_565  S
In236       O241   2.253   1_565  S
In236       O243   2.256       .  S
In236       O244   2.242       .  S
In236       O245   2.252       .  S
In236       O248   2.258       .  S
In236      O1402   2.253       .  S
C237        O243   1.260       .  A
C237        O245   1.260       .  A
C237        C877   1.483       .  S
O238      In1400   2.254   1_554  S
O238       C1410   1.256       .  A
O239        C246   1.259       .  A
C240        O247   1.259       .  A
C240        O241   1.261       .  A
C240        C709   1.480       .  S
C242        O244   1.261       .  A
C242        O248   1.263       .  A
C246       O1402   1.256       .  A
C246       C1397   1.465       .  S
C249        C250   1.551       .  S
C249        C255   1.536       .  S
C249        C253   1.537       .  S
C249        C697   1.547       .  S
C250        H257   1.075       .  S
C250        C251   1.364       .  D
C251        C252   1.536       .  S
C251        C685   1.493       .  S
C252        C256   1.536       .  S
C252        C254   1.538       .  S
C252        H258   1.110       .  S
C253        H259   1.086       .  S
C253        C254   1.370       .  D
C254        C748   1.483       .  S
C255        H260   1.086       .  S
C255        C256   1.366       .  D
C256        C676   1.489       .  S
C261        C262   1.532       .  S
C261        C267   1.532       .  S
C261        C265   1.551       .  S
C261        C700   1.535       .  S
C262        H269   1.087       .  S
C262        C263   1.356       .  D
C263        C264   1.536       .  S
C263        C661   1.474       .  S
C264        C268   1.533       .  S
C264        C266   1.540       .  S
C264        H270   1.111       .  S
C265        H271   1.083       .  S
C265        C266   1.376       .  D
C266        C637   1.482       .  S
C267        H272   1.086       .  S
C267        C268   1.363       .  D
C268        C652   1.481       .  S
C273        C274   1.550       .  S
C273        C279   1.537       .  S
C273        C277   1.535       .  S
C273        C625   1.536       .  S
C274        H281   1.082       .  S
C274        C275   1.356       .  D
C275        C276   1.527       .  S
C275        C613   1.473       .  S
C276        C280   1.539       .  S
C276        C278   1.545       .  S
C276        H282   1.110       .  S
C277        H283   1.085       .  S
C277        C278   1.368       .  D
C278       C1144   1.488       .  S
C279        H284   1.086       .  S
C279        C280   1.365       .  D
C280        C604   1.482       .  S
C285        C286   1.532       .  S
C285        C291   1.531       .  S
C285        C289   1.540       .  S
C285        C628   1.529       .  S
C286        H293   1.085       .  S
C286        C287   1.368       .  D
C287        C288   1.546       .  S
C287        C688   1.504       .  S
C288        C292   1.530       .  S
C288        C290   1.540       .  S
C288        H294   1.106       .  S
C289        H295   1.082       .  S
C289        C290   1.368       .  D
C290        C736   1.468       .  S
C291        H296   1.087       .  S
C291        C292   1.359       .  D
C292        C589   1.476       .  S
C297        C298   1.537       .  S
C297        C303   1.525       .  S
C297        C301   1.556       .  S
C297        C577   1.534       .  S
C298        H305   1.084       .  S
C298        C299   1.366       .  D
C299        C300   1.540       .  S
C299        C616   1.492       .  S
C300        C304   1.533       .  S
C300        C302   1.533       .  S
C300        H306   1.110       .  S
C301        H307   1.083       .  S
C301        C302   1.375       .  D
C302       C1132   1.480       .  S
C303        H308   1.088       .  S
C303        C304   1.353       .  D
C304        C568   1.472       .  S
C309        C310   1.551       .  S
C309        C315   1.528       .  S
C309        C313   1.541       .  S
C309        C580   1.542       .  S
C310        H317   1.079       .  S
C310        C311   1.366       .  D
C311        C312   1.539       .  S
C311        C664   1.493       .  S
C312        C316   1.539       .  S
C312        C314   1.539       .  S
C312        H318   1.110       .  S
C313        H319   1.086       .  S
C313        C314   1.370       .  D
C314        C541   1.486       .  S
C315        H320   1.087       .  S
C315        C316   1.360       .  D
C316        C553   1.484       .  S
C321        C327   1.534       .  S
C321       C1486   1.535       .  S
C321       C1489   1.553       .  S
C321       C1693   1.547       .  S
C322       C1485   1.532       .  S
C322        H329   1.086       .  S
C322       C1487   1.364       .  D
C323        C324   1.538       .  S
C323       C1486   1.366       .  D
C323       C2260   1.476       .  S
C324        C328   1.536       .  S
C324        C326   1.548       .  S
C324        H330   1.105       .  S
C325       C1485   1.546       .  S
C325        H331   1.076       .  S
C325       C1490   1.371       .  D
C326       C1489   1.377       .  D
C326        C520   1.519       .  S
C327        H332   1.086       .  S
C327        C328   1.359       .  D
C328        C601   1.481       .  S
C333        C334   1.546       .  S
C333        C339   1.528       .  S
C333        C337   1.531       .  S
C333        C532   1.530       .  S
C334        H341   1.082       .  S
C334        C335   1.371       .  D
C335        C336   1.542       .  S
C335        C712   1.475       .  S
C336        C340   1.530       .  S
C336        C338   1.546       .  S
C336        H342   1.106       .  S
C337        H343   1.085       .  S
C337        C338   1.367       .  D
C338        C505   1.502       .  S
C339        H344   1.087       .  S
C339        C340   1.357       .  D
C340        C592   1.477       .  S
C345        C346   1.531       .  S
C345       C1515   1.550       .  S
C345       C1513   1.541       .  S
C345       C1657   1.549       .  S
C346        H353   1.087       .  S
C346        C347   1.360       .  D
C347        C348   1.539       .  S
C347        C673   1.491       .  S
C348        C352   1.540       .  S
C348        C350   1.546       .  S
C348        H354   1.109       .  S
C349       C1509   1.537   1_554  S
C349        H355   1.086       .  S
C349       C1514   1.369   1_554  D
C350       C1513   1.372       .  D
C350       C1888   1.488       .  S
C351       C1509   1.553   1_554  S
C351        H356   1.075       .  S
C351       C1516   1.369   1_554  D
C352       C1515   1.368       .  D
C352        C508   1.499       .  S
C357        C358   1.547       .  S
C357        C363   1.525       .  S
C357        C361   1.536       .  S
C357        C496   1.536       .  S
C358       H1529   1.083   1_554  S
C358        C359   1.372       .  D
C359        C360   1.540       .  S
C359        C469   1.473       .  S
C360        C364   1.532       .  S
C360        C362   1.551       .  S
C360        H366   1.103       .  S
C361        H367   1.084       .  S
C361        C362   1.373       .  D
C362        C484   1.515       .  S
C363        H368   1.087       .  S
C363        C364   1.356       .  D
C364        C649   1.482       .  S
H365       C1522   1.083       .  S
C369        C370   1.548       .  S
C369        C375   1.543       .  S
C369        C373   1.536       .  S
C369        C457   1.544       .  S
C370       H1541   1.085       .  S
C370        C371   1.371       .  D
C371        C372   1.535       .  S
C371       C1084   1.480       .  S
C372        C376   1.528       .  S
C372        C374   1.538       .  S
C372        H378   1.110       .  S
C373        H379   1.085       .  S
C373        C374   1.365       .  D
C374        C517   1.494       .  S
C375        H380   1.081       .  S
C375        C376   1.360       .  D
C376        C565   1.475       .  S
H377       C1534   1.086       .  S
C381        C382   1.537   1_556  S
C381        C385   1.548   1_556  S
C381       C1551   1.538       .  S
C381        C460   1.548   1_556  S
C382        H389   1.086       .  S
C382       C1547   1.364   1_554  D
C383        C384   1.542       .  S
C383       C1546   1.367       .  D
C383       C1609   1.481       .  S
C384        C388   1.531       .  S
C384        C386   1.543       .  S
C384        H390   1.108       .  S
C385        H391   1.083       .  S
C385       C1550   1.375   1_554  D
C386       C1549   1.375       .  D
C386       C1645   1.510       .  S
C387       C1545   1.543       .  S
C387        H392   1.080       .  S
C387        C388   1.360       .  D
C388        C556   1.486       .  S
In393       O395   2.262       .  S
In393       O396   2.265       .  S
In393       O404   2.240       .  S
In393       O398   2.260       .  S
In393       O400   2.260       .  S
In393       O401   2.256       .  S
In393       O402   2.246       .  S
In393       O405   2.263       .  S
C394        O400   1.261       .  A
C394        O402   1.260       .  A
C394        C640   1.482       .  S
O395        C403   1.257       .  A
O396        C403   1.260       .  A
C397        O404   1.260       .  A
C397        O398   1.261       .  A
C397        C793   1.487       .  S
C399        O401   1.261       .  A
C399        O405   1.262       .  A
C399        C425   1.474       .  S
C403        C416   1.472       .  S
In406       O408   2.257       .  S
In406       O409   2.266       .  S
In406       O417   2.256       .  S
In406       O411   2.258       .  S
In406       O413   2.268       .  S
In406       O414   2.251       .  S
In406       O415   2.244       .  S
In406       O418   2.267       .  S
C407        O413   1.263       .  A
C407        O415   1.260       .  A
C407        C544   1.487       .  S
O408        C416   1.258       .  A
O409        C416   1.261       .  A
C410        O417   1.260       .  A
C410        O411   1.262       .  A
C410        C769   1.489       .  S
C412        O414   1.262       .  A
C412        O418   1.263       .  A
C412        C438   1.475       .  S
In419       O422   2.257       .  S
In419       O430   2.232       .  S
In419       O424   2.277       .  S
In419       O426   2.259       .  S
In419       O427   2.255       .  S
In419       O428   2.240       .  S
In419       O431   2.258       .  S
In419      O1585   2.266       .  S
C420        O426   1.265       .  A
C420        O428   1.261       .  A
C420        C940   1.486       .  S
O421      In1583   2.263   1_554  S
O421       C1593   1.259       .  A
O422        C429   1.262       .  A
C423        O430   1.259       .  A
C423        O424   1.265       .  A
C423        C472   1.492       .  S
C425        O427   1.263       .  A
C425        O431   1.262       .  A
C429       O1585   1.259       .  A
C429       C1606   1.474       .  S
In432       O434   2.251       .  S
In432       O435   2.276       .  S
In432       O443   2.239       .  S
In432       O437   2.264       .  S
In432       O439   2.246       .  S
In432       O440   2.249       .  S
In432       O441   2.251       .  S
In432       O444   2.265       .  S
C433        O439   1.260       .  A
C433        O441   1.260       .  A
C433        C904   1.476       .  S
O434        C442   1.255       .  A
O435        C442   1.261       .  A
C436        O443   1.260       .  A
C436        O437   1.261       .  A
C436        C448   1.485       .  S
C438        O440   1.262       .  A
C438        O444   1.264       .  A
C442       C1593   1.471       .  S
C445       C1547   1.476   1_554  S
C445        C446   1.399       .  A
C445       C1614   1.406       .  A
C446        C447   1.397       .  A
C446        H451   1.085       .  S
C447        C448   1.414       .  A
C447        C454   1.444       .  S
C448        C449   1.409       .  A
C449       C1614   1.405       .  A
C449       H1616   1.084       .  S
C450       C1609   1.406       .  A
C450       C1613   1.404       .  A
C450        C453   1.442       .  S
H452       C1613   1.084       .  S
C453        N455   1.157       .  T
C454        N456   1.157       .  T
C457        C458   1.414       .  A
C457       C1626   1.417   1_554  A
C458        C459   1.402       .  A
C458        H463   1.077       .  S
C459        C460   1.416       .  A
C459        C466   1.446       .  S
C460       C1625   1.414   1_554  A
C461        C462   1.403       .  A
C461       C1624   1.415       .  A
C461        H464   1.074       .  S
C462       C1621   1.417       .  A
C462        C465   1.446       .  S
C465        N467   1.157       .  T
C466        N468   1.157       .  T
C469        C474   1.408       .  A
C469       C1634   1.399   1_554  A
C470        C471   1.402       .  A
C470       C1633   1.400       .  A
C470        H475   1.085       .  S
C471        C472   1.418       .  A
C471        C478   1.444       .  S
C472       C1637   1.407       .  A
C473        C474   1.401       .  A
C473       C1636   1.406   1_554  A
C473        H476   1.084       .  S
C474        C477   1.444       .  S
C477        N479   1.157       .  T
C478        N480   1.157       .  T
C481       C1550   1.506   1_554  S
C481        C486   1.414       .  A
C481       C1646   1.408       .  A
C482       C1645   1.407       .  A
C482       C1647   1.402       .  A
C482        H487   1.081       .  S
C483        C484   1.421       .  A
C483       C1646   1.406       .  A
C483       C1654   1.442       .  S
C484        C485   1.412       .  A
C485        C486   1.400       .  A
C485        H488   1.082       .  S
C486        C489   1.443       .  S
C489        N491   1.157       .  T
C490       C1647   1.441       .  S
C490        N492   1.158       .  T
C493       C1509   1.544   1_554  S
C493        C494   1.405       .  A
C493        C498   1.422   1_554  A
C494        C495   1.393       .  A
C494        H499   1.078       .  S
C495        C496   1.422       .  A
C495        C502   1.448       .  S
C496        C497   1.408       .  A
C497        C498   1.409   1_554  A
C497        H500   1.080   1_554  S
C498       C1665   1.445       .  S
C501       C1662   1.445       .  S
C501        N503   1.157       .  T
C502        N504   1.157       .  T
C505        C506   1.410       .  A
C505        C510   1.417       .  A
C506        C507   1.396       .  A
C506        H511   1.083       .  S
C507       C1672   1.414       .  A
C507        C514   1.445       .  S
C508       C1671   1.415       .  A
C508       C1673   1.406       .  A
C509        C510   1.400       .  A
C509       C1672   1.406       .  A
C509       H1676   1.081       .  S
C510        C513   1.442       .  S
H512       C1673   1.081       .  S
C513        N515   1.157       .  T
C514        N516   1.158   1_554  T
C517        C518   1.404       .  A
C517        C522   1.412       .  A
C518       C1683   1.402       .  A
C518        H523   1.084       .  S
C519        C520   1.424       .  A
C519       C1682   1.405       .  A
C519        C526   1.441       .  S
C520       C1685   1.414       .  A
C521        C522   1.398       .  A
C521       C1684   1.413       .  A
C521        H524   1.082       .  S
C522        C525   1.446       .  S
C525        N527   1.158       .  T
C526        N528   1.157       .  T
C529       C1485   1.539       .  S
C529        C530   1.406       .  A
C529        C534   1.421   1_554  A
C530        C531   1.392       .  A
C530        H535   1.077       .  S
C531        C532   1.421       .  A
C531        C538   1.449       .  S
C532        C533   1.405       .  A
C533        C534   1.404   1_554  A
C533        H536   1.079   1_554  S
C534        C537   1.444       .  S
C537       N1703   1.157       .  T
C538        N540   1.158       .  T
N539       C1701   1.157       .  T
C541        C542   1.403       .  A
C541        C546   1.411       .  A
C542        C543   1.407       .  A
C542        H547   1.085       .  S
C543        C544   1.415       .  A
C543        C550   1.444       .  S
C544        C545   1.404       .  A
C545        C546   1.401       .  A
C545        H548   1.085       .  S
C546        C549   1.444       .  S
C549        N551   1.157       .  T
C550        N552   1.157       .  T
C553        C554   1.402       .  A
C553        C558   1.413       .  A
C554        C555   1.406       .  A
C554        H559   1.085       .  S
C555        C556   1.412       .  A
C555        C562   1.440       .  S
C556        C557   1.402       .  A
C557        C558   1.396       .  A
C557        H560   1.085       .  S
C558        C561   1.445       .  S
C561        N563   1.157       .  T
C562        N564   1.156       .  T
C565        C566   1.401       .  A
C565        C570   1.410       .  A
C566        C567   1.400       .  A
C566        H571   1.085       .  S
C567        C568   1.410       .  A
C567        C574   1.444       .  S
C568        C569   1.402       .  A
C569        C570   1.397       .  A
C569        H572   1.085       .  S
C570        C573   1.444       .  S
C573        N575   1.157       .  T
C574        N576   1.157       .  T
C577        C578   1.406       .  A
C577        C582   1.422       .  A
C578        C579   1.407       .  A
C578        H583   1.080       .  S
C579        C580   1.422       .  A
C579        C586   1.445       .  S
C580        C581   1.406       .  A
C581        C582   1.394       .  A
C581        H584   1.076       .  S
C582        C585   1.449       .  S
C585        N587   1.158       .  T
C586        N588   1.157       .  T
C589        C590   1.402       .  A
C589        C594   1.410       .  A
C590        C591   1.403       .  A
C590        H595   1.085       .  S
C591        C592   1.411       .  A
C591        C598   1.443       .  S
C592        C593   1.402       .  A
C593        C594   1.394       .  A
C593        H596   1.085       .  S
C594        C597   1.444       .  S
C597        N599   1.157       .  T
C598        N600   1.157       .  T
C601        C602   1.403       .  A
C601        C606   1.408       .  A
C602        C603   1.400       .  A
C602        H607   1.084       .  S
C603        C604   1.408       .  A
C603        C610   1.443       .  S
C604        C605   1.404       .  A
C605        C606   1.405       .  A
C605        H608   1.081       .  S
C606        C609   1.444       .  S
C609        N611   1.157       .  T
C610        N612   1.157       .  T
C613        C614   1.396       .  A
C613        C618   1.407       .  A
C614        C615   1.397       .  A
C614        H619   1.082       .  S
C615        C616   1.420       .  A
C615        C622   1.443       .  S
C616        C617   1.405       .  A
C617        C618   1.399       .  A
C617        H620   1.083       .  S
C618        C621   1.441       .  S
C621        N623   1.156       .  T
C622        N624   1.157       .  T
C625        C626   1.406       .  A
C625        C630   1.419       .  A
C626        C627   1.390       .  A
C626        H631   1.077       .  S
C627        C628   1.418       .  A
C627        C634   1.449       .  S
C628        C629   1.408       .  A
C629        C630   1.405       .  A
C629        H632   1.078       .  S
C630        C633   1.444       .  S
C633        N635   1.157       .  T
C634        N636   1.157       .  T
C637        C638   1.401       .  A
C637        C642   1.412       .  A
C638        C639   1.402       .  A
C638        H643   1.085       .  S
C639        C640   1.412       .  A
C639        C646   1.442       .  S
C640        C641   1.404       .  A
C641        C642   1.402       .  A
C641        H644   1.085       .  S
C642        C645   1.444       .  S
C645        N647   1.157       .  T
C646        N648   1.157       .  T
C649        C650   1.404       .  A
C649        C654   1.411       .  A
C650        C651   1.392       .  A
C650        H655   1.085       .  S
C651        C652   1.410       .  A
C651        C658   1.445       .  S
C652        C653   1.403       .  A
C653        C654   1.404       .  A
C653        H656   1.082       .  S
C654        C657   1.443       .  S
C657        N659   1.157       .  T
C658        N660   1.157       .  T
C661        C662   1.400       .  A
C661        C666   1.407       .  A
C662        C663   1.400       .  A
C662        H667   1.085       .  S
C663        C664   1.413       .  A
C663        C670   1.442       .  S
C664        C665   1.410       .  A
C665        C666   1.400       .  A
C665        H668   1.083       .  S
C666        C669   1.444       .  S
C669        N671   1.158       .  T
C670        N672   1.157       .  T
C673        C674   1.405       .  A
C673        C678   1.412       .  A
C674        C675   1.397       .  A
C674        H679   1.085       .  S
C675        C676   1.412       .  A
C675        C682   1.444       .  S
C676        C677   1.405       .  A
C677        C678   1.407       .  A
C677        H680   1.084       .  S
C678        C681   1.441       .  S
C681        N683   1.157       .  T
C682        N684   1.157       .  T
C685        C686   1.404       .  A
C685        C690   1.413       .  A
C686        C687   1.405       .  A
C686        H691   1.084       .  S
C687        C688   1.419       .  A
C687        C694   1.441       .  S
C688        C689   1.410       .  A
C689        C690   1.395       .  A
C689        H692   1.083       .  S
C690        C693   1.446       .  S
C693        N695   1.158       .  T
C694        N696   1.157       .  T
C697        C698   1.407       .  A
C697        C702   1.422       .  A
C698        C699   1.391       .  A
C698        H703   1.074       .  S
C699        C700   1.419       .  A
C699        C706   1.449       .  S
C700        C701   1.408       .  A
C701        C702   1.410       .  A
C701        H704   1.080       .  S
C702        C705   1.444       .  S
C705        N707   1.157       .  T
C706        N708   1.157       .  T
C709        C710   1.404       .  A
C709       C1878   1.414       .  A
C710        C711   1.402       .  A
C710        H715   1.085       .  S
C711       C1876   1.410       .  A
C711        C718   1.444       .  S
C712        C713   1.400       .  A
C712       C1875   1.410   1_554  A
C713        C714   1.398       .  A
C713        H716   1.085       .  S
C714       C1873   1.412   1_554  A
C714        C717   1.444       .  S
C717        N719   1.157       .  T
C718        N720   1.157       .  T
C721        C726   1.417       .  A
C721       C1886   1.409       .  A
C722        C723   1.410       .  A
C722       C1885   1.410       .  A
C722        H727   1.084       .  S
C723       C1888   1.407       .  A
C723        C730   1.442       .  S
C724       C1514   1.485   1_554  S
C724        C725   1.401       .  A
C724       C1887   1.406       .  A
C725        C726   1.399       .  A
C725        H728   1.084       .  S
C726        C729   1.446       .  S
C729        N731   1.158       .  T
C730        N732   1.157       .  T
C733        C734   1.403       .  A
C733        C738   1.416       .  A
C734        C735   1.395       .  A
C734        H739   1.085       .  S
C735        C736   1.407       .  A
C735        C742   1.444       .  S
C736        C737   1.399       .  A
C737        C738   1.400       .  A
C737        H740   1.085       .  S
C738        C741   1.444       .  S
C741        N743   1.157       .  T
C742        N744   1.157       .  T
C745        C746   1.404       .  A
C745        C750   1.416       .  A
C746        C747   1.399       .  A
C746        H751   1.085       .  S
C747        C748   1.412       .  A
C747        C754   1.445       .  S
C748        C749   1.401       .  A
C749        C750   1.405       .  A
C749        H752   1.085       .  S
C750        C753   1.443       .  S
C753        N755   1.157       .  T
C754        N756   1.157       .  T
C757        C758   1.405       .  A
C757        C762   1.410       .  A
C758        C759   1.403       .  A
C758        H763   1.085       .  S
C759        C760   1.411       .  A
C759        C766   1.444       .  S
C760        C761   1.400       .  A
C761        C762   1.397       .  A
C761        H764   1.085       .  S
C762        C765   1.442       .  S
C765        N767   1.157       .  T
C766        N768   1.157       .  T
C769        C770   1.408       .  A
C769        C774   1.416       .  A
C770        C771   1.405       .  A
C770        H775   1.084       .  S
C771        C772   1.410       .  A
C771        C778   1.444       .  S
C772        C773   1.400       .  A
C773        C774   1.402       .  A
C773        H776   1.085       .  S
C774        C777   1.443       .  S
C777        N779   1.157       .  T
C778        N780   1.157       .  T
C781        C782   1.409       .  A
C781        C786   1.421       .  A
C782        C783   1.409       .  A
C782        H787   1.079       .  S
C783        C784   1.420       .  A
C783        C790   1.443       .  S
C784        C785   1.405       .  A
C785        C786   1.396       .  A
C785        H788   1.082       .  S
C786        C789   1.446       .  S
C789        N791   1.157       .  T
C790        N792   1.157       .  T
C793        C794   1.410       .  A
C793        C798   1.415       .  A
C794        C795   1.405       .  A
C794        H799   1.084       .  S
C795        C796   1.405       .  A
C795        C802   1.442       .  S
C796        C797   1.400       .  A
C797        C798   1.398       .  A
C797        H800   1.085       .  S
C798        C801   1.444       .  S
C801        N803   1.157       .  T
C802        N804   1.157       .  T
C805        C806   1.415       .  A
C805        C810   1.430       .  A
C806        C807   1.400       .  A
C806        H811   1.079       .  S
C807        C808   1.410       .  A
C807        C814   1.444       .  S
C808        C809   1.398       .  A
C809        C810   1.399       .  A
C809        H812   1.084       .  S
C810        C813   1.441       .  S
C813        N815   1.158       .  T
C814        N816   1.157       .  T
C817        C818   1.414       .  A
C817        C822   1.417       .  A
C818        C819   1.399       .  A
C818        H823   1.086       .  S
C819        C820   1.415       .  A
C819        C826   1.446       .  S
C820        C821   1.415       .  A
C821        C822   1.403       .  A
C821        H824   1.075       .  S
C822        C825   1.446       .  S
C825        N827   1.157       .  T
C826        N828   1.157       .  T
C829        C830   1.396       .  A
C829        C834   1.405       .  A
C830        C831   1.399       .  A
C830        H835   1.084       .  S
C831        C832   1.420       .  A
C831        C838   1.443       .  S
C832        C833   1.408       .  A
C833        C834   1.401       .  A
C833        H836   1.083       .  S
C834        C837   1.444       .  S
C837        N839   1.157       .  T
C838        N840   1.157       .  T
C841        C842   1.404       .  A
C841        C846   1.406       .  A
C842        C843   1.407       .  A
C842        H847   1.084       .  S
C843        C844   1.416       .  A
C843        C850   1.443       .  S
C844        C845   1.404       .  A
C845        C846   1.392       .  A
C845        H848   1.085       .  S
C846        C849   1.442       .  S
C849        N851   1.157       .  T
C850        N852   1.157       .  T
C853        C854   1.416       .  A
C853        C858   1.422       .  A
C854        C855   1.404       .  A
C854        H859   1.082       .  S
C855        C856   1.404       .  A
C855        C862   1.444       .  S
C856        C857   1.397       .  A
C857        C858   1.401       .  A
C857        H860   1.084       .  S
C858        C861   1.442       .  S
C861        N863   1.158       .  T
C862        N864   1.157       .  T
C865        C866   1.411       .  A
C865        C870   1.416       .  A
C866        C867   1.403       .  A
C866        H871   1.076       .  S
C867        C868   1.417       .  A
C867        C874   1.441       .  S
C868        C869   1.415       .  A
C869        C870   1.400       .  A
C869        H872   1.077       .  S
C870        C873   1.447       .  S
C873        N875   1.157       .  T
C874        N876   1.156       .  T
C877        C878   1.402       .  A
C877       C2046   1.415       .  A
C878        C879   1.401       .  A
C878        H883   1.085       .  S
C879       C2044   1.412       .  A
C879        C886   1.441       .  S
C880        C881   1.402       .  A
C880       C2043   1.411   1_554  A
C881        C882   1.405       .  A
C881        H884   1.085       .  S
C882       C2041   1.415   1_554  A
C882        C885   1.443       .  S
C885        N887   1.157       .  T
C886        N888   1.156       .  T
C889        C890   1.405       .  A
C889        C894   1.411       .  A
C890        C891   1.399       .  A
C890        H895   1.085       .  S
C891        C892   1.410       .  A
C891        C898   1.444       .  S
C892        C893   1.400       .  A
C893        C894   1.400       .  A
C893        H896   1.084       .  S
C894        C897   1.441       .  S
C897        N899   1.157       .  T
C898        N900   1.157       .  T
C901        C906   1.419       .  A
C901       C2066   1.406   1_554  A
C902        C903   1.399       .  A
C902       C2065   1.405       .  A
C902        H907   1.085       .  S
C903       C2068   1.411       .  A
C903        C910   1.444       .  S
C904        C905   1.401       .  A
C904       C2067   1.409       .  A
C905        C906   1.404       .  A
C905        H908   1.085       .  S
C906        C909   1.441       .  S
C909        N911   1.157       .  T
C910        N912   1.157       .  T
C913        C914   1.402       .  A
C913        C918   1.414       .  A
C914        C915   1.397       .  A
C914        H919   1.085       .  S
C915        C916   1.412       .  A
C915        C922   1.446       .  S
C916        C917   1.400       .  A
C917        C918   1.403       .  A
C917        H920   1.084       .  S
C918        C921   1.442       .  S
C921        N923   1.157       .  T
C922        N924   1.157       .  T
C925        C930   1.415       .  A
C925       C2090   1.413   1_554  A
C926       C2089   1.413       .  A
C926       C2091   1.399       .  A
C926        H931   1.073       .  S
C927        C928   1.416   1_556  A
C927       C2090   1.402       .  A
C927       C2098   1.442       .  S
C928        C929   1.414       .  A
C929        C930   1.400       .  A
C929        H932   1.078       .  S
C930        C933   1.445       .  S
C933        N935   1.157       .  T
C934       C2091   1.444       .  S
C934        N936   1.157       .  T
C937        C938   1.400   1_554  A
C937       C2106   1.408       .  A
C938        C939   1.397       .  A
C938        H943   1.085       .  S
C939       C2104   1.413       .  A
C939        C946   1.444       .  S
C940        C941   1.405       .  A
C940       C2103   1.416       .  A
C941        C942   1.403       .  A
C941        H944   1.084       .  S
C942       C2101   1.408       .  A
C942        C945   1.443       .  S
C945        N947   1.157       .  T
C946        N948   1.157       .  T
C949        C950   1.401       .  A
C949        C954   1.409       .  A
C950        C951   1.404       .  A
C950        H955   1.084       .  S
C951        C952   1.410       .  A
C951        C958   1.440       .  S
C952        C953   1.402       .  A
C953        C954   1.393       .  A
C953        H956   1.085       .  S
C954        C957   1.445       .  S
C957        N959   1.157       .  T
C958        N960   1.156       .  T
C961        C962   1.404       .  A
C961       C2130   1.414   1_554  A
C962        C963   1.398       .  A
C962        H967   1.085       .  S
C963        C964   1.408   1_554  A
C963        C970   1.443       .  S
C964       C1267   1.478       .  S
C964       C2129   1.401       .  A
C965        C966   1.404       .  A
C965       C2128   1.401       .  A
C965        H968   1.084       .  S
C966       C2125   1.415       .  A
C966        C969   1.442       .  S
C969        N971   1.157       .  T
C970        N972   1.157       .  T
C973        C974   1.402       .  A
C973        C978   1.407       .  A
C974        C975   1.392       .  A
C974        H979   1.086       .  S
C975        C976   1.410       .  A
C975        C982   1.446       .  S
C976        C977   1.403       .  A
C977        C978   1.403       .  A
C977        H980   1.081       .  S
C978        C981   1.442       .  S
C981        N983   1.157       .  T
C982        N984   1.157       .  T
C985        C986   1.415       .  A
C985        C990   1.417   1_554  A
C986        C987   1.402       .  A
C986        H991   1.077       .  S
C987        C988   1.415   1_554  A
C987        C994   1.445       .  S
C988       C1241   1.551       .  S
C988       C2153   1.416       .  A
C989       C2152   1.417       .  A
C989       C2154   1.405       .  A
C989        H992   1.072       .  S
C990       C2153   1.405       .  A
C990       C2157   1.445       .  S
C993       C2154   1.445       .  S
C993        N995   1.157       .  T
C994        N996   1.157       .  T
C997        C998   1.403       .  A
C997       C1002   1.410       .  A
C998        C999   1.404       .  A
C998       H1003   1.083       .  S
C999       C1000   1.410       .  A
C999       C1006   1.444       .  S
C1000      C1001   1.399       .  A
C1001      C1002   1.396       .  A
C1001      H1004   1.084       .  S
C1002      C1005   1.444       .  S
C1005      N1007   1.157       .  T
C1006      N1008   1.157       .  T
C1009      C1243   1.503       .  S
C1009      C1010   1.406   1_556  A
C1009      C1014   1.412       .  A
C1010      C1011   1.403       .  A
C1010      H1015   1.083       .  S
C1011      C1012   1.421       .  A
C1011      C1018   1.442       .  S
C1012      C1013   1.414       .  A
C1013      C1014   1.401   1_554  A
C1013      H1016   1.081       .  S
C1014      C2181   1.444       .  S
C1017      C2178   1.444       .  S
C1017      N1019   1.157       .  T
C1018      N1020   1.158       .  T
C1021      C1222   1.515   1_554  S
C1021      C1022   1.415       .  A
C1021      C1026   1.425       .  A
C1022      C1023   1.413       .  A
C1022      H1027   1.084       .  S
C1023      C1024   1.409       .  A
C1023      C1030   1.443       .  S
C1024      C1025   1.398       .  A
C1025      C1026   1.398       .  A
C1025      H1028   1.086       .  S
C1026      C1029   1.442       .  S
C1029      N1031   1.158   1_554  T
C1030      N1032   1.157       .  T
C1033      C1034   1.404       .  A
C1033      C1038   1.410       .  A
C1034      C1035   1.405       .  A
C1034      H1039   1.085       .  S
C1035      C1036   1.408       .  A
C1035      C1042   1.443       .  S
C1036      C1037   1.399       .  A
C1037      C1038   1.394       .  A
C1037      H1040   1.086       .  S
C1038      C1041   1.442       .  S
C1041      N1043   1.157       .  T
C1042      N1044   1.157       .  T
C1045      C1046   1.404       .  A
C1045      C2214   1.418   1_554  A
C1046      C1047   1.399       .  A
C1046      H1051   1.079       .  S
C1047      C2212   1.409   1_554  A
C1047      C1054   1.444       .  S
C1048      C1049   1.398       .  A
C1048      C2211   1.408       .  A
C1049      C1050   1.401       .  A
C1049      H1052   1.078       .  S
C1050      C2209   1.419       .  A
C1050      C1053   1.444       .  S
C1053      N1055   1.158       .  T
C1054      N1056   1.157       .  T
C1057      C1217   1.547       .  S
C1057      C1058   1.411   1_556  A
C1057      C2226   1.425       .  A
C1058      C1059   1.415       .  A
C1058      H1063   1.080       .  S
C1059      C1060   1.423       .  A
C1059      C1066   1.443       .  S
C1060      C2225   1.401   1_554  A
C1061      C1062   1.392       .  A
C1061      C2224   1.403       .  A
C1061      H1064   1.083       .  S
C1062      C2221   1.422       .  A
C1062      C1065   1.444       .  S
C1065      N1067   1.156       .  T
C1066      N1068   1.158       .  T
C1069      C1074   1.414       .  A
C1069      C2234   1.407       .  A
C1070      C1071   1.403       .  A
C1070      C2233   1.406   1_554  A
C1070      H1075   1.084       .  S
C1071      C1072   1.408       .  A
C1071      C1078   1.443       .  S
C1072      C2237   1.402   1_554  A
C1073      C1074   1.400       .  A
C1073      C2236   1.401       .  A
C1073      H1076   1.085       .  S
C1074      C1077   1.444       .  S
C1077      N1079   1.157       .  T
C1078      N1080   1.157       .  T
C1081      C1082   1.402       .  A
C1081      C2250   1.411       .  A
C1082      C2247   1.400       .  A
C1082      H1087   1.085       .  S
C1083      C1084   1.408       .  A
C1083      C2246   1.398       .  A
C1083      C1090   1.441       .  S
C1084      C1085   1.404   1_554  A
C1085      C1086   1.404       .  A
C1085      H1088   1.085       .  S
C1086      C2245   1.413       .  A
C1086      C1089   1.444       .  S
C1089      N1091   1.157       .  T
C1090      N1092   1.156       .  T
C1093      C1098   1.414       .  A
C1093      C2258   1.405       .  A
C1094      C1095   1.401       .  A
C1094      C2257   1.405       .  A
C1094      H1099   1.085       .  S
C1095      C2260   1.407       .  A
C1095      C1102   1.442       .  S
C1096      C1487   1.475       .  S
C1096      C1097   1.400       .  A
C1096      C2259   1.407   1_554  A
C1097      C1098   1.398       .  A
C1097      H1100   1.085       .  S
C1098      C1101   1.444       .  S
C1101      N1103   1.157       .  T
C1102      N1104   1.157       .  T
C1105      C1246   1.481   1_554  S
C1105      C1106   1.399   1_554  A
C1105      C1110   1.409       .  A
C1106      C1107   1.404   1_556  A
C1106      H2275   1.082       .  S
C1107      C1108   1.417       .  A
C1107      C1114   1.443   1_554  S
C1108      C1109   1.406       .  A
C1109      C1110   1.400       .  A
C1109      H1112   1.085       .  S
C1110      C1113   1.444       .  S
H1111      C2270   1.084       .  S
C1113      N1115   1.157       .  T
C1114      N1116   1.157       .  T
C1117      C1118   1.403       .  A
C1117      C1122   1.411       .  A
C1118      C1119   1.403       .  A
C1118      H1123   1.085       .  S
C1119      C1120   1.415       .  A
C1119      C1126   1.444       .  S
C1120      C1121   1.402       .  A
C1121      C1122   1.400       .  A
C1121      H1124   1.085       .  S
C1122      C1125   1.441       .  S
C1125      N1127   1.156       .  T
C1126      N1128   1.157       .  T
C1129      C1130   1.402       .  A
C1129      C1134   1.412       .  A
C1130      C1131   1.401       .  A
C1130      H1135   1.085       .  S
C1131      C1132   1.410       .  A
C1131      C1138   1.442       .  S
C1132      C1133   1.403       .  A
C1133      C1134   1.402       .  A
C1133      H1136   1.085       .  S
C1134      C1137   1.445       .  S
C1137      N1139   1.157       .  T
C1138      N1140   1.157       .  T
C1141      C1142   1.400       .  A
C1141      C1146   1.411       .  A
C1142      C1143   1.401       .  A
C1142      H1147   1.085       .  S
C1143      C1144   1.419       .  A
C1143      C1150   1.444       .  S
C1144      C1145   1.403       .  A
C1145      C1146   1.398       .  A
C1145      H1148   1.085       .  S
C1146      C1149   1.444       .  S
C1149      N1151   1.157       .  T
C1150      N1152   1.158       .  T
C1153      C1154   1.400       .  A
C1153      C1158   1.405       .  A
C1154      C1155   1.407       .  A
C1154      H1159   1.085       .  S
C1155      C1156   1.421       .  A
C1155      C1162   1.441       .  S
C1156      C1157   1.407       .  A
C1157      C1158   1.395       .  A
C1157      H1160   1.080       .  S
C1158      C1161   1.446       .  S
C1161      N1163   1.157       .  T
C1162      N1164   1.157       .  T
In1165     O1167   2.246       .  S
In1165     O1168   2.261       .  S
In1165     O1176   2.232   1_655  S
In1165     O1170   2.260   1_655  S
In1165     O1172   2.244       .  S
In1165     O1173   2.259   1_655  S
In1165     O1174   2.245       .  S
In1165     O1177   2.256       .  S
C1166      O1172   1.259       .  A
C1166      O1174   1.260       .  A
C1166      C2305   1.474       .  S
O1167      C1175   1.258       .  A
O1168      C1175   1.264       .  A
C1169      O1176   1.258       .  A
C1169      O1170   1.260       .  A
C1169      C2317   1.470       .  S
C1171      O1173   1.261       .  A
C1171      O1177   1.261   1_455  A
C1171      C1197   1.472       .  S
C1175      C1188   1.468       .  S
In1178     O1180   2.256       .  S
In1178     O1181   2.260       .  S
In1178     O1189   2.245   1_655  S
In1178     O1183   2.251   1_655  S
In1178     O1185   2.254       .  S
In1178     O1186   2.252       .  S
In1178     O1187   2.230       .  S
In1178     O1190   2.256   1_655  S
C1179      O1185   1.262       .  A
C1179      O1187   1.261       .  A
C1179      C2293   1.478       .  S
O1180      C1188   1.257       .  A
O1181      C1188   1.261       .  A
C1182      O1189   1.260       .  A
C1182      O1183   1.260       .  A
C1182      C2284   1.484       .  S
C1184      O1186   1.262       .  A
C1184      O1190   1.262   1_655  A
C1184      C1210   1.472       .  S
In1191     O1193   2.240       .  S
In1191     O1194   2.259       .  S
In1191     O1202   2.233   1_455  S
In1191     O1196   2.248   1_455  S
In1191     O1198   2.256       .  S
In1191     O1199   2.254       .  S
In1191     O1200   2.235       .  S
In1191     O1203   2.254   1_455  S
C1192      O1198   1.262       .  A
C1192      O1200   1.261       .  A
C1192      C2272   1.487       .  S
O1193      C1201   1.257       .  A
O1194      C1201   1.263       .  A
C1195      O1202   1.260       .  A
C1195      O1196   1.262       .  A
C1195      C2257   1.477       .  S
C1197      O1199   1.262       .  A
C1197      O1203   1.262   1_455  A
In1204     O1207   2.262       .  S
In1204     O1215   2.254   1_455  S
In1204     O1209   2.242   1_455  S
In1204     O1211   2.256       .  S
In1204     O1212   2.252   1_455  S
In1204     O1213   2.243       .  S
In1204     O1216   2.257       .  S
C1205      O1211   1.261       .  A
C1205      O1213   1.261       .  A
C1205      C2233   1.482       .  S
O1207      C1214   1.260   1_556  A
C1208      O1215   1.260       .  A
C1208      O1209   1.260       .  A
C1208      C2245   1.481       .  S
C1210      O1212   1.262       .  A
C1210      O1216   1.262   1_655  A
C1217      C1223   1.534       .  S
C1218      H1225   1.087       .  S
C1219      C1220   1.535       .  S
C1219      C2212   1.481       .  S
C1220      C1224   1.532       .  S
C1220      C1222   1.550       .  S
C1220      H1226   1.105       .  S
C1221      H1227   1.081       .  S
C1223      H1228   1.086       .  S
C1223      C1224   1.356       .  D
C1224      C2197   1.478       .  S
C1229      C1230   1.548       .  S
C1229      C1235   1.538       .  S
C1229      C1233   1.533       .  S
C1229      C2224   1.543       .  S
C1230      H1237   1.080       .  S
C1230      C1231   1.371       .  D
C1231      C1232   1.546       .  S
C1231      C2176   1.515       .  S
C1232      C1236   1.534       .  S
C1232      C1234   1.540       .  S
C1232      H1238   1.104       .  S
C1233      C1234   1.365       .  D
C1234      C2236   1.476       .  S
C1235      H1240   1.084       .  S
C1235      C1236   1.362       .  D
C1236      C2164   1.480       .  S
C1241      C1247   1.540       .  S
C1242      H1249   1.084       .  S
C1243      C1244   1.541       .  S
C1244      C1248   1.532       .  S
C1244      C1246   1.540       .  S
C1244      H1250   1.109       .  S
C1245      H1251   1.086       .  S
C1247      H1252   1.080       .  S
C1247      C1248   1.360       .  D
C1248      C2137   1.484       .  S
C1253      C1254   1.547       .  S
C1253      C1259   1.541       .  S
C1253      C1257   1.549       .  S
C1253      C2149   1.550       .  S
C1254      H1261   1.086       .  S
C1254      C1255   1.368       .  D
C1255      C1256   1.532       .  S
C1255      C2125   1.486       .  S
C1256      C1260   1.526       .  S
C1256      C1258   1.533       .  S
C1256      H1262   1.111       .  S
C1257      C1258   1.372       .  D
C1258      C2101   1.479       .  S
C1259      H1264   1.079       .  S
C1259      C1260   1.358       .  D
C1260      C2113   1.481       .  S
C1265      C1266   1.538       .  S
C1265      C1269   1.543       .  S
C1265      C2089   1.539       .  S
C1266      H1273   1.086       .  S
C1267      C1268   1.533       .  S
C1268      C1272   1.533       .  S
C1268      H1274   1.110       .  S
C1269      H1275   1.085       .  S
C1269      C1270   1.372       .  D
C1270      C2065   1.491       .  S
C1271      H1276   1.078       .  S
C1271      C1272   1.361       .  D
C1272      C2080   1.483       .  S
C1277      C1278   1.537       .  S
C1277      C1283   1.537       .  S
C1277      C1281   1.550       .  S
C1277      C2092   1.537       .  S
C1278      H1285   1.085       .  S
C1278      C1279   1.365       .  D
C1279      C1280   1.540       .  S
C1279      C2209   1.491       .  S
C1280      C1284   1.540       .  S
C1280      C1282   1.537       .  S
C1280      H1286   1.111       .  S
C1281      C1282   1.368       .  D
C1282      C2044   1.481       .  S
C1283      H1288   1.085       .  S
C1283      C1284   1.357       .  D
C1284      C2053   1.483       .  S
C1289      C1290   1.543       .  S
C1289      C1295   1.539       .  S
C1289      C1293   1.543       .  S
C1289      C2029   1.542       .  S
C1290      H1297   1.086       .  S
C1290      C1291   1.364       .  D
C1291      C1292   1.533       .  S
C1291      C2005   1.475       .  S
C1292      C1296   1.536       .  S
C1292      C1294   1.541       .  S
C1292      H1298   1.107       .  S
C1293      H1299   1.086       .  S
C1293      C1294   1.369       .  D
C1294      C2017   1.502       .  S
C1295      H1300   1.081       .  S
C1295      C1296   1.362       .  D
C1296      C2200   1.475       .  S
C1301      C1302   1.548       .  S
C1301      C1307   1.536       .  S
C1301      C1305   1.535       .  S
C1301      C2032   1.542       .  S
C1302      H1309   1.084       .  S
C1302      C1303   1.370       .  D
C1303      C1304   1.538       .  S
C1303      C2281   1.482       .  S
C1304      C1308   1.539       .  S
C1304      C1306   1.543       .  S
C1304      H1310   1.110       .  S
C1305      H1311   1.085       .  S
C1305      C1306   1.368       .  D
C1306      C1996   1.497       .  S
C1307      H1312   1.084       .  S
C1307      C1308   1.358       .  D
C1308      C2161   1.483       .  S
C1313      C1314   1.542       .  S
C1313      C1319   1.544       .  S
C1313      C1317   1.549       .  S
C1313      C1984   1.547       .  S
C1314      H1321   1.079       .  S
C1314      C1315   1.360       .  D
C1315      C1316   1.530       .  S
C1315      C2140   1.480       .  S
C1316      C1320   1.526       .  S
C1316      C1318   1.546       .  S
C1316      H1322   1.110       .  S
C1317      H1323   1.084       .  S
C1317      C1318   1.377       .  D
C1318      C2320   1.501       .  S
C1319      H1324   1.086       .  S
C1319      C1320   1.360       .  D
C1320      C1993   1.476       .  S
C1325      C1326   1.539       .  S
C1325      C1331   1.538       .  S
C1325      C1329   1.544       .  S
C1325      C1981   1.550       .  S
C1326      H1333   1.085       .  S
C1326      C1327   1.368       .  D
C1327      C1328   1.544       .  S
C1327      C1960   1.479       .  S
C1328      C1332   1.529       .  S
C1328      C1330   1.544       .  S
C1328      H1334   1.099       .  S
C1329      H1335   1.083       .  S
C1329      C1330   1.379       .  D
C1330      C1969   1.517       .  S
C1331      H1336   1.067       .  S
C1331      C1332   1.358       .  D
C1332      C2116   1.484       .  S
C1337      C1338   1.533       .  S
C1337      C1343   1.540       .  S
C1337      C1341   1.555       .  S
C1337      C1945   1.542       .  S
C1338      H1345   1.087       .  S
C1338      C1339   1.360       .  D
C1339      C1340   1.531       .  S
C1339      C2077   1.482       .  S
C1340      C1344   1.541       .  S
C1340      C1342   1.535       .  S
C1340      H1346   1.111       .  S
C1341      H1347   1.083       .  S
C1341      C1342   1.375       .  D
C1342      C1936   1.485       .  S
C1343      H1348   1.085       .  S
C1343      C1344   1.367       .  D
C1344      C1972   1.494       .  S
C1349      C1350   1.542       .  S
C1349      C1355   1.540       .  S
C1349      C1353   1.549       .  S
C1349      C1948   1.545       .  S
C1350      H1357   1.086       .  S
C1350      C1351   1.371       .  D
C1351      C1352   1.537       .  S
C1351      C1921   1.484       .  S
C1352      C1356   1.540       .  S
C1352      C1354   1.532       .  S
C1352      H1358   1.111       .  S
C1353      H1359   1.083       .  S
C1353      C1354   1.357       .  D
C1354      C2020   1.480       .  S
C1355      H1360   1.086       .  S
C1355      C1356   1.366       .  D
C1356      C2056   1.483       .  S
In1361     O1363   2.256       .  S
In1361     O1364   2.262       .  S
In1361     O1372   2.226       .  S
In1361     O1366   2.256       .  S
In1361     O1368   2.263   1_565  S
In1361     O1369   2.261       .  S
In1361     O1370   2.247   1_565  S
In1361     O1373   2.260       .  S
C1362      O1368   1.261       .  A
C1362      O1370   1.261       .  A
C1362      C1909   1.487       .  S
O1363      C1371   1.258       .  A
O1364      C1371   1.262       .  A
C1365      O1372   1.260       .  A
C1365      O1366   1.263       .  A
C1365      C2008   1.483       .  S
C1367      O1369   1.263       .  A
C1367      O1373   1.261       .  A
C1367      C1393   1.476       .  S
C1371      C1384   1.470       .  S
In1374     O1376   2.254       .  S
In1374     O1377   2.263       .  S
In1374     O1385   2.246       .  S
In1374     O1379   2.240       .  S
In1374     O1381   2.257   1_565  S
In1374     O1382   2.246       .  S
In1374     O1383   2.229   1_565  S
In1374     O1386   2.260       .  S
C1375      O1381   1.262       .  A
C1375      O1383   1.260       .  A
C1375      C1897   1.482       .  S
O1376      C1384   1.257       .  A
O1377      C1384   1.262       .  A
C1378      O1385   1.260       .  A
C1378      O1379   1.261       .  A
C1378      C1924   1.474       .  S
C1380      O1382   1.262       .  A
C1380      O1386   1.262       .  A
C1380      C1406   1.471       .  S
In1387     O1389   2.246       .  S
In1387     O1390   2.249       .  S
In1387     O1398   2.224   1_565  S
In1387     O1392   2.281   1_565  S
In1387     O1394   2.286       .  S
In1387     O1395   2.258       .  S
In1387     O1396   2.216       .  S
In1387     O1399   2.266       .  S
C1388      O1394   1.266       .  A
C1388      O1396   1.259       .  A
C1388      C2188   1.485       .  S
O1389      C1397   1.261       .  A
O1390      C1397   1.263       .  A
C1391      O1398   1.259       .  A
C1391      O1392   1.266       .  A
C1391      C1885   1.493       .  S
C1393      O1395   1.260       .  A
C1393      O1399   1.263       .  A
In1400     O1403   2.264       .  S
In1400     O1411   2.236   1_565  S
In1400     O1405   2.251   1_565  S
In1400     O1407   2.261       .  S
In1400     O1408   2.243       .  S
In1400     O1409   2.248       .  S
In1400     O1412   2.260       .  S
C1401      O1407   1.261       .  A
C1401      O1409   1.261       .  A
C1401      C2041   1.484       .  S
O1403      C1410   1.260   1_556  A
C1404      O1411   1.258       .  A
C1404      O1405   1.262       .  A
C1404      C1873   1.475       .  S
C1406      O1408   1.262       .  A
C1406      O1412   1.264       .  A
C1413      C1414   1.554       .  S
C1413      C1419   1.534       .  S
C1413      C1417   1.538       .  S
C1413      C1861   1.548       .  S
C1414      H1421   1.078       .  S
C1414      C1415   1.367       .  D
C1415      C1416   1.533       .  S
C1415      C1849   1.494       .  S
C1416      C1420   1.535       .  S
C1416      C1418   1.539       .  S
C1416      H1422   1.111       .  S
C1417      H1423   1.086       .  S
C1417      C1418   1.371       .  D
C1418      C1912   1.484       .  S
C1419      H1424   1.086       .  S
C1419      C1420   1.364       .  D
C1420      C1840   1.485       .  S
C1425      C1426   1.535       .  S
C1425      C1431   1.533       .  S
C1425      C1429   1.554       .  S
C1425      C1864   1.540       .  S
C1426      H1433   1.087       .  S
C1426      C1427   1.357       .  D
C1427      C1428   1.536       .  S
C1427      C1825   1.476       .  S
C1428      C1432   1.535       .  S
C1428      C1430   1.540       .  S
C1428      H1434   1.111       .  S
C1429      H1435   1.083       .  S
C1429      C1430   1.378       .  D
C1430      C1801   1.487       .  S
C1431      H1436   1.087       .  S
C1431      C1432   1.363       .  D
C1432      C1816   1.485       .  S
C1437      C1438   1.553       .  S
C1437      C1443   1.535       .  S
C1437      C1441   1.535       .  S
C1437      C1789   1.541       .  S
C1438      H1445   1.083       .  S
C1438      C1439   1.360       .  D
C1439      C1440   1.529       .  S
C1439      C1777   1.478       .  S
C1440      C1444   1.538       .  S
C1440      C1442   1.545       .  S
C1440      H1446   1.111       .  S
C1441      H1447   1.085       .  S
C1441      C1442   1.368       .  D
C1442      C2308   1.489       .  S
C1443      H1448   1.087       .  S
C1443      C1444   1.364       .  D
C1444      C1768   1.480       .  S
C1449      C1450   1.534       .  S
C1449      C1455   1.529       .  S
C1449      C1453   1.544       .  S
C1449      C1792   1.533       .  S
C1450      H1457   1.084       .  S
C1450      C1451   1.370       .  D
C1451      C1452   1.551       .  S
C1451      C1852   1.512       .  S
C1452      C1456   1.530       .  S
C1452      C1454   1.539       .  S
C1452      H1458   1.105       .  S
C1453      H1459   1.083       .  S
C1453      C1454   1.371       .  D
C1454      C1900   1.471       .  S
C1455      H1460   1.087       .  S
C1455      C1456   1.357       .  D
C1456      C1753   1.477       .  S
C1461      C1462   1.538       .  S
C1461      C1467   1.527       .  S
C1461      C1465   1.553       .  S
C1461      C1741   1.534       .  S
C1462      H1469   1.083       .  S
C1462      C1463   1.367       .  D
C1463      C1464   1.545       .  S
C1463      C1780   1.501       .  S
C1464      C1468   1.538       .  S
C1464      C1466   1.533       .  S
C1464      H1470   1.109       .  S
C1465      H1471   1.082       .  S
C1465      C1466   1.369       .  D
C1466      C2296   1.476       .  S
C1467      H1472   1.087       .  S
C1467      C1468   1.356       .  D
C1468      C1732   1.477       .  S
C1473      C1474   1.550       .  S
C1473      C1479   1.529       .  S
C1473      C1477   1.538       .  S
C1473      C1744   1.541       .  S
C1474      H1481   1.079       .  S
C1474      C1475   1.367       .  D
C1475      C1476   1.537       .  S
C1475      C1828   1.492       .  S
C1476      C1480   1.538       .  S
C1476      C1478   1.538       .  S
C1476      H1482   1.110       .  S
C1477      H1483   1.086       .  S
C1477      C1478   1.369       .  D
C1478      C1705   1.485       .  S
C1479      H1484   1.086       .  S
C1479      C1480   1.362       .  D
C1480      C1717   1.481       .  S
C1485      C1491   1.536   1_554  S
C1486      H1493   1.086       .  S
C1487      C1488   1.542   1_554  S
C1488      C1492   1.535       .  S
C1488      C1490   1.547   1_556  S
C1488      H1494   1.105       .  S
C1489      H1495   1.076       .  S
C1490      C1684   1.509       .  S
C1491      H1496   1.086       .  S
C1491      C1492   1.360       .  D
C1492      C1765   1.480       .  S
C1497      C1498   1.548       .  S
C1497      C1503   1.533       .  S
C1497      C1501   1.531       .  S
C1497      C1696   1.541       .  S
C1498      H1505   1.083       .  S
C1498      C1499   1.376       .  D
C1499      C1500   1.543       .  S
C1499      C1876   1.481       .  S
C1500      C1504   1.532       .  S
C1500      C1502   1.543       .  S
C1500      H1506   1.106       .  S
C1501      H1507   1.086       .  S
C1501      C1502   1.367       .  D
C1502      C1669   1.501       .  S
C1503      H1508   1.087       .  S
C1503      C1504   1.360       .  D
C1504      C1756   1.481       .  S
C1509      C1510   1.530       .  S
C1510      H1517   1.087       .  S
C1510      C1511   1.360       .  D
C1511      C1512   1.537       .  S
C1511      C1837   1.487       .  S
C1512      C1516   1.538       .  S
C1512      C1514   1.545       .  S
C1512      H1518   1.108       .  S
C1513      H1519   1.086       .  S
C1515      H1520   1.076       .  S
C1516      C1672   1.500   1_556  S
C1521      C1522   1.550       .  S
C1521      C1527   1.527       .  S
C1521      C1525   1.540       .  S
C1521      C1660   1.541       .  S
C1522      C1523   1.375       .  D
C1523      C1524   1.542       .  S
C1523      C1633   1.482       .  S
C1524      C1528   1.532       .  S
C1524      C1526   1.551       .  S
C1524      H1530   1.101       .  S
C1525      H1531   1.084       .  S
C1525      C1526   1.373       .  D
C1526      C1648   1.517       .  S
C1527      H1532   1.087       .  S
C1527      C1528   1.355       .  D
C1528      C1813   1.484       .  S
C1533      C1534   1.549       .  S
C1533      C1539   1.544       .  S
C1533      C1537   1.539       .  S
C1533      C1621   1.551       .  S
C1534      C1535   1.373       .  D
C1535      C1536   1.537       .  S
C1535      C2248   1.487       .  S
C1536      C1540   1.531       .  S
C1536      C1538   1.540       .  S
C1536      H1542   1.110       .  S
C1537      H1543   1.085       .  S
C1537      C1538   1.366       .  D
C1538      C1681   1.499       .  S
C1539      H1544   1.081       .  S
C1539      C1540   1.362       .  D
C1540      C1729   1.479       .  S
C1545      C1546   1.542       .  S
C1545      C1549   1.548       .  S
C1545      C1624   1.554       .  S
C1546      H1553   1.085       .  S
C1547      C1548   1.541       .  S
C1548      C1552   1.531       .  S
C1548      C1550   1.541       .  S
C1548      H1554   1.109       .  S
C1549      H1555   1.083       .  S
C1551      H1556   1.081       .  S
C1551      C1552   1.360       .  D
C1552      C1720   1.484       .  S
In1557     O1559   2.249       .  S
In1557     O1560   2.252       .  S
In1557     O1568   2.241       .  S
In1557     O1562   2.259       .  S
In1557     O1564   2.253       .  S
In1557     O1565   2.254       .  S
In1557     O1566   2.257       .  S
In1557     O1569   2.256       .  S
C1558      O1564   1.260       .  A
C1558      O1566   1.260       .  A
C1558      C1804   1.485       .  S
O1559      C1567   1.257       .  A
O1560      C1567   1.260       .  A
C1561      O1568   1.259       .  A
C1561      O1562   1.262       .  A
C1561      C1957   1.483       .  S
C1563      O1565   1.261       .  A
C1563      O1569   1.263       .  A
C1563      C1589   1.471       .  S
C1567      C1580   1.462       .  S
In1570     O1572   2.244       .  S
In1570     O1573   2.253       .  S
In1570     O1581   2.253       .  S
In1570     O1575   2.265       .  S
In1570     O1577   2.279       .  S
In1570     O1578   2.248       .  S
In1570     O1579   2.241       .  S
In1570     O1582   2.274       .  S
C1571      O1577   1.263       .  A
C1571      O1579   1.259       .  A
C1571      C1708   1.485       .  S
O1572      C1580   1.257       .  A
O1573      C1580   1.260       .  A
C1574      O1581   1.260       .  A
C1574      O1575   1.264       .  A
C1574      C1933   1.489       .  S
C1576      O1578   1.261       .  A
C1576      O1582   1.265       .  A
C1576      C1602   1.477       .  S
In1583     O1586   2.255       .  S
In1583     O1594   2.234       .  S
In1583     O1588   2.253       .  S
In1583     O1590   2.254       .  S
In1583     O1591   2.261       .  S
In1583     O1592   2.230       .  S
In1583     O1595   2.254       .  S
C1584      O1590   1.263       .  A
C1584      O1592   1.261       .  A
C1584      C2104   1.481       .  S
O1586      C1593   1.262   1_556  A
C1587      O1594   1.259       .  A
C1587      O1588   1.262       .  A
C1587      C1636   1.482       .  S
C1589      O1591   1.262       .  A
C1589      O1595   1.260       .  A
In1596     O1598   2.250       .  S
In1596     O1599   2.278       .  S
In1596     O1607   2.237       .  S
In1596     O1601   2.253       .  S
In1596     O1603   2.251       .  S
In1596     O1604   2.253       .  S
In1596     O1605   2.243       .  S
In1596     O1608   2.268       .  S
C1597      O1603   1.260       .  A
C1597      O1605   1.260       .  A
C1597      C2068   1.476       .  S
O1598      C1606   1.256       .  A
O1599      C1606   1.263       .  A
C1600      O1607   1.260       .  A
C1600      O1601   1.262       .  A
C1600      C1612   1.485       .  S
C1602      O1604   1.264       .  A
C1602      O1608   1.263       .  A
C1609      C1610   1.401       .  A
C1610      C1611   1.399       .  A
C1610      H1615   1.084       .  S
C1611      C1612   1.415       .  A
C1611      C1618   1.445       .  S
C1612      C1613   1.408       .  A
C1614      C1617   1.443   1_554  S
C1617      N1619   1.157       .  T
C1618      N1620   1.158       .  T
C1621      C1622   1.415       .  A
C1622      C1623   1.407       .  A
C1622      H1627   1.076       .  S
C1623      C1624   1.419       .  A
C1623      C1630   1.446       .  S
C1625      C1626   1.401       .  A
C1625      H1628   1.077       .  S
C1626      C1629   1.447       .  S
C1629      N1631   1.158       .  T
C1630      N1632   1.158       .  T
C1633      C1638   1.408       .  A
C1634      C1635   1.399       .  A
C1634      H1639   1.085       .  S
C1635      C1636   1.416       .  A
C1635      C1642   1.443       .  S
C1637      C1638   1.406       .  A
C1637      H1640   1.084       .  S
C1638      C1641   1.443       .  S
C1641      N1643   1.157       .  T
C1642      N1644   1.157       .  T
C1645      C1650   1.415       .  A
C1646      H1651   1.083       .  S
C1647      C1648   1.420       .  A
C1648      C1649   1.414       .  A
C1649      C1650   1.405       .  A
C1649      H1652   1.082       .  S
C1650      C1653   1.444       .  S
C1653      N1655   1.158       .  T
C1654      N1656   1.158       .  T
C1657      C1658   1.407       .  A
C1657      C1662   1.423       .  A
C1658      C1659   1.395       .  A
C1658      H1663   1.077       .  S
C1659      C1660   1.422       .  A
C1659      C1666   1.448       .  S
C1660      C1661   1.409       .  A
C1661      C1662   1.412       .  A
C1661      H1664   1.081       .  S
C1665      N1667   1.157       .  T
C1666      N1668   1.157       .  T
C1669      C1670   1.408       .  A
C1669      C1674   1.417       .  A
C1670      C1671   1.394       .  A
C1670      H1675   1.083       .  S
C1671      C1678   1.445       .  S
C1673      C1674   1.403       .  A
C1674      C1677   1.442       .  S
C1677      N1679   1.157       .  T
C1678      N1680   1.157       .  T
C1681      C1682   1.402       .  A
C1681      C1686   1.412       .  A
C1682      H1687   1.084       .  S
C1683      C1684   1.419       .  A
C1683      C1690   1.441       .  S
C1685      C1686   1.403       .  A
C1685      H1688   1.082       .  S
C1686      C1689   1.445       .  S
C1689      N1691   1.158       .  T
C1690      N1692   1.157       .  T
C1693      C1694   1.406       .  A
C1693      C1698   1.424       .  A
C1694      C1695   1.396       .  A
C1694      H1699   1.077       .  S
C1695      C1696   1.423       .  A
C1695      C1702   1.448       .  S
C1696      C1697   1.407       .  A
C1697      C1698   1.410       .  A
C1697      H1700   1.080       .  S
C1698      C1701   1.444       .  S
C1702      N1704   1.157       .  T
C1705      C1706   1.403       .  A
C1705      C1710   1.411       .  A
C1706      C1707   1.407       .  A
C1706      H1711   1.084       .  S
C1707      C1708   1.415       .  A
C1707      C1714   1.444       .  S
C1708      C1709   1.403       .  A
C1709      C1710   1.400       .  A
C1709      H1712   1.085       .  S
C1710      C1713   1.444       .  S
C1713      N1715   1.157       .  T
C1714      N1716   1.157       .  T
C1717      C1718   1.403       .  A
C1717      C1722   1.413       .  A
C1718      C1719   1.404       .  A
C1718      H1723   1.084       .  S
C1719      C1720   1.410       .  A
C1719      C1726   1.440       .  S
C1720      C1721   1.403       .  A
C1721      C1722   1.392       .  A
C1721      H1724   1.085       .  S
C1722      C1725   1.446       .  S
C1725      N1727   1.157       .  T
C1726      N1728   1.157       .  T
C1729      C1730   1.401       .  A
C1729      C1734   1.411       .  A
C1730      C1731   1.401       .  A
C1730      H1735   1.085       .  S
C1731      C1732   1.411       .  A
C1731      C1738   1.442       .  S
C1732      C1733   1.403       .  A
C1733      C1734   1.398       .  A
C1733      H1736   1.085       .  S
C1734      C1737   1.445       .  S
C1737      N1739   1.157       .  T
C1738      N1740   1.157       .  T
C1741      C1742   1.407       .  A
C1741      C1746   1.420       .  A
C1742      C1743   1.404       .  A
C1742      H1747   1.078       .  S
C1743      C1744   1.421       .  A
C1743      C1750   1.445       .  S
C1744      C1745   1.407       .  A
C1745      C1746   1.395       .  A
C1745      H1748   1.076       .  S
C1746      C1749   1.448       .  S
C1749      N1751   1.158       .  T
C1750      N1752   1.157       .  T
C1753      C1754   1.400       .  A
C1753      C1758   1.410       .  A
C1754      C1755   1.403       .  A
C1754      H1759   1.085       .  S
C1755      C1756   1.413       .  A
C1755      C1762   1.442       .  S
C1756      C1757   1.402       .  A
C1757      C1758   1.397       .  A
C1757      H1760   1.085       .  S
C1758      C1761   1.444       .  S
C1761      N1763   1.157       .  T
C1762      N1764   1.157       .  T
C1765      C1766   1.402       .  A
C1765      C1770   1.409       .  A
C1766      C1767   1.398       .  A
C1766      H1771   1.084       .  S
C1767      C1768   1.407       .  A
C1767      C1774   1.443       .  S
C1768      C1769   1.405       .  A
C1769      C1770   1.406       .  A
C1769      H1772   1.083       .  S
C1770      C1773   1.444       .  S
C1773      N1775   1.157       .  T
C1774      N1776   1.157       .  T
C1777      C1778   1.397       .  A
C1777      C1782   1.407       .  A
C1778      C1779   1.400       .  A
C1778      H1783   1.085       .  S
C1779      C1780   1.424       .  A
C1779      C1786   1.443       .  S
C1780      C1781   1.406       .  A
C1781      C1782   1.400       .  A
C1781      H1784   1.082       .  S
C1782      C1785   1.440       .  S
C1785      N1787   1.156       .  T
C1786      N1788   1.158       .  T
C1789      C1790   1.406       .  A
C1789      C1794   1.421       .  A
C1790      C1791   1.392       .  A
C1790      H1795   1.080       .  S
C1791      C1792   1.420       .  A
C1791      C1798   1.448       .  S
C1792      C1793   1.407       .  A
C1793      C1794   1.407       .  A
C1793      H1796   1.080       .  S
C1794      C1797   1.444       .  S
C1797      N1799   1.157       .  T
C1798      N1800   1.157       .  T
C1801      C1802   1.404       .  A
C1801      C1806   1.412       .  A
C1802      C1803   1.405       .  A
C1802      H1807   1.085       .  S
C1803      C1804   1.413       .  A
C1803      C1810   1.442       .  S
C1804      C1805   1.403       .  A
C1805      C1806   1.400       .  A
C1805      H1808   1.085       .  S
C1806      C1809   1.443       .  S
C1809      N1811   1.157       .  T
C1810      N1812   1.157       .  T
C1813      C1814   1.404       .  A
C1813      C1818   1.411       .  A
C1814      C1815   1.395       .  A
C1814      H1819   1.085       .  S
C1815      C1816   1.411       .  A
C1815      C1822   1.445       .  S
C1816      C1817   1.402       .  A
C1817      C1818   1.405       .  A
C1817      H1820   1.081       .  S
C1818      C1821   1.443       .  S
C1821      N1823   1.157       .  T
C1822      N1824   1.157       .  T
C1825      C1826   1.402       .  A
C1825      C1830   1.406       .  A
C1826      C1827   1.402       .  A
C1826      H1831   1.085       .  S
C1827      C1828   1.415       .  A
C1827      C1834   1.443       .  S
C1828      C1829   1.408       .  A
C1829      C1830   1.398       .  A
C1829      H1832   1.084       .  S
C1830      C1833   1.443       .  S
C1833      N1835   1.157       .  T
C1834      N1836   1.157       .  T
C1837      C1838   1.404       .  A
C1837      C1842   1.411       .  A
C1838      C1839   1.395       .  A
C1838      H1843   1.085       .  S
C1839      C1840   1.413       .  A
C1839      C1846   1.445       .  S
C1840      C1841   1.405       .  A
C1841      C1842   1.406       .  A
C1841      H1844   1.085       .  S
C1842      C1845   1.442       .  S
C1845      N1847   1.157       .  T
C1846      N1848   1.157       .  T
C1849      C1850   1.403       .  A
C1849      C1854   1.410       .  A
C1850      C1851   1.406       .  A
C1850      H1855   1.084       .  S
C1851      C1852   1.421       .  A
C1851      C1858   1.441       .  S
C1852      C1853   1.413       .  A
C1853      C1854   1.398       .  A
C1853      H1856   1.082       .  S
C1854      C1857   1.446       .  S
C1857      N1859   1.157       .  T
C1858      N1860   1.158       .  T
C1861      C1862   1.406       .  A
C1861      C1866   1.422       .  A
C1862      C1863   1.395       .  A
C1862      H1867   1.077       .  S
C1863      C1864   1.421       .  A
C1863      C1870   1.448       .  S
C1864      C1865   1.409       .  A
C1865      C1866   1.411       .  A
C1865      H1868   1.080       .  S
C1866      C1869   1.444       .  S
C1869      N1871   1.157       .  T
C1870      N1872   1.157       .  T
C1873      C1874   1.405       .  A
C1874      C1875   1.401       .  A
C1874      H1879   1.085       .  S
C1875      C1882   1.444       .  S
C1876      C1877   1.402       .  A
C1877      C1878   1.402       .  A
C1877      H1880   1.085       .  S
C1878      C1881   1.444       .  S
C1881      N1883   1.157       .  T
C1882      N1884   1.157       .  T
C1885      C1890   1.418       .  A
C1886      C1887   1.407       .  A
C1886      H1891   1.084       .  S
C1887      C1894   1.442   1_554  S
C1888      C1889   1.400       .  A
C1889      C1890   1.399       .  A
C1889      H1892   1.084       .  S
C1890      C1893   1.445       .  S
C1893      N1895   1.158       .  T
C1894      N1896   1.157       .  T
C1897      C1898   1.405       .  A
C1897      C1902   1.417       .  A
C1898      C1899   1.397       .  A
C1898      H1903   1.085       .  S
C1899      C1900   1.406       .  A
C1899      C1906   1.445       .  S
C1900      C1901   1.400       .  A
C1901      C1902   1.402       .  A
C1901      H1904   1.085       .  S
C1902      C1905   1.444       .  S
C1905      N1907   1.157       .  T
C1906      N1908   1.157       .  T
C1909      C1910   1.403       .  A
C1909      C1914   1.417       .  A
C1910      C1911   1.399       .  A
C1910      H1915   1.085       .  S
C1911      C1912   1.412       .  A
C1911      C1918   1.444       .  S
C1912      C1913   1.402       .  A
C1913      C1914   1.406       .  A
C1913      H1916   1.085       .  S
C1914      C1917   1.444       .  S
C1917      N1919   1.157       .  T
C1918      N1920   1.157       .  T
C1921      C1922   1.406       .  A
C1921      C1926   1.411       .  A
C1922      C1923   1.404       .  A
C1922      H1927   1.085       .  S
C1923      C1924   1.411       .  A
C1923      C1930   1.444       .  S
C1924      C1925   1.399       .  A
C1925      C1926   1.397       .  A
C1925      H1928   1.085       .  S
C1926      C1929   1.440       .  S
C1929      N1931   1.156       .  T
C1930      N1932   1.157       .  T
C1933      C1934   1.407       .  A
C1933      C1938   1.415       .  A
C1934      C1935   1.405       .  A
C1934      H1939   1.085       .  S
C1935      C1936   1.410       .  A
C1935      C1942   1.444       .  S
C1936      C1937   1.402       .  A
C1937      C1938   1.404       .  A
C1937      H1940   1.085       .  S
C1938      C1941   1.444       .  S
C1941      N1943   1.157       .  T
C1942      N1944   1.157       .  T
C1945      C1946   1.411       .  A
C1945      C1950   1.421       .  A
C1946      C1947   1.411       .  A
C1946      H1951   1.080       .  S
C1947      C1948   1.418       .  A
C1947      C1954   1.443       .  S
C1948      C1949   1.406       .  A
C1949      C1950   1.395       .  A
C1949      H1952   1.080       .  S
C1950      C1953   1.446       .  S
C1953      N1955   1.157       .  T
C1954      N1956   1.157       .  T
C1957      C1958   1.408       .  A
C1957      C1962   1.414       .  A
C1958      C1959   1.404       .  A
C1958      H1963   1.084       .  S
C1959      C1960   1.406       .  A
C1959      C1966   1.442       .  S
C1960      C1961   1.401       .  A
C1961      C1962   1.399       .  A
C1961      H1964   1.085       .  S
C1962      C1965   1.445       .  S
C1965      N1967   1.157       .  T
C1966      N1968   1.157       .  T
C1969      C1970   1.413       .  A
C1969      C1974   1.427       .  A
C1970      C1971   1.400       .  A
C1970      H1975   1.081       .  S
C1971      C1972   1.410       .  A
C1971      C1978   1.443       .  S
C1972      C1973   1.400       .  A
C1973      C1974   1.401       .  A
C1973      H1976   1.084       .  S
C1974      C1977   1.441       .  S
C1977      N1979   1.158       .  T
C1978      N1980   1.157       .  T
C1981      C1982   1.416       .  A
C1981      C1986   1.415       .  A
C1982      C1983   1.402       .  A
C1982      H1987   1.056       .  S
C1983      C1984   1.413       .  A
C1983      C1990   1.445       .  S
C1984      C1985   1.416       .  A
C1985      C1986   1.405       .  A
C1985      H1988   1.072       .  S
C1986      C1989   1.446       .  S
C1989      N1991   1.157       .  T
C1990      N1992   1.157       .  T
C1993      C1994   1.396       .  A
C1993      C1998   1.407       .  A
C1994      C1995   1.399       .  A
C1994      H1999   1.084       .  S
C1995      C1996   1.421       .  A
C1995      C2002   1.443       .  S
C1996      C1997   1.408       .  A
C1997      C1998   1.403       .  A
C1997      H2000   1.083       .  S
C1998      C2001   1.444       .  S
C2001      N2003   1.157       .  T
C2002      N2004   1.157       .  T
C2005      C2006   1.400       .  A
C2005      C2010   1.407       .  A
C2006      C2007   1.403       .  A
C2006      H2011   1.084       .  S
C2007      C2008   1.416       .  A
C2007      C2014   1.443       .  S
C2008      C2009   1.406       .  A
C2009      C2010   1.397       .  A
C2009      H2012   1.085       .  S
C2010      C2013   1.443       .  S
C2013      N2015   1.157       .  T
C2014      N2016   1.157       .  T
C2017      C2018   1.412       .  A
C2017      C2022   1.418       .  A
C2018      C2019   1.400       .  A
C2018      H2023   1.083       .  S
C2019      C2020   1.405       .  A
C2019      C2026   1.443       .  S
C2020      C2021   1.400       .  A
C2021      C2022   1.402       .  A
C2021      H2024   1.083       .  S
C2022      C2025   1.443       .  S
C2025      N2027   1.158       .  T
C2026      N2028   1.157       .  T
C2029      C2030   1.414       .  A
C2029      C2034   1.415       .  A
C2030      C2031   1.405       .  A
C2030      H2035   1.076       .  S
C2031      C2032   1.418       .  A
C2031      C2038   1.444       .  S
C2032      C2033   1.412       .  A
C2033      C2034   1.396       .  A
C2033      H2036   1.080       .  S
C2034      C2037   1.446       .  S
C2037      N2039   1.157       .  T
C2038      N2040   1.157       .  T
C2041      C2042   1.401       .  A
C2042      C2043   1.400       .  A
C2042      H2047   1.085       .  S
C2043      C2050   1.440       .  S
C2044      C2045   1.400       .  A
C2045      C2046   1.403       .  A
C2045      H2048   1.085       .  S
C2046      C2049   1.443       .  S
C2049      N2051   1.157       .  T
C2050      N2052   1.156       .  T
C2053      C2054   1.405       .  A
C2053      C2058   1.411       .  A
C2054      C2055   1.402       .  A
C2054      H2059   1.085       .  S
C2055      C2056   1.410       .  A
C2055      C2062   1.443       .  S
C2056      C2057   1.400       .  A
C2057      C2058   1.401       .  A
C2057      H2060   1.080       .  S
C2058      C2061   1.442       .  S
C2061      N2063   1.157       .  T
C2062      N2064   1.157       .  T
C2065      C2070   1.416       .  A
C2066      C2067   1.399   1_556  A
C2066      H2071   1.085       .  S
C2067      C2074   1.445   1_554  S
C2068      C2069   1.401       .  A
C2069      C2070   1.402       .  A
C2069      H2072   1.085       .  S
C2070      C2073   1.441       .  S
C2073      N2075   1.157       .  T
C2074      N2076   1.157       .  T
C2077      C2078   1.402       .  A
C2077      C2082   1.411       .  A
C2078      C2079   1.397       .  A
C2078      H2083   1.085       .  S
C2079      C2080   1.411       .  A
C2079      C2086   1.444       .  S
C2080      C2081   1.403       .  A
C2081      C2082   1.405       .  A
C2081      H2084   1.082       .  S
C2082      C2085   1.443       .  S
C2085      N2087   1.157       .  T
C2086      N2088   1.157       .  T
C2089      C2094   1.414       .  A
C2090      H2095   1.073       .  S
C2091      C2092   1.416       .  A
C2092      C2093   1.413       .  A
C2093      C2094   1.397       .  A
C2093      H2096   1.080       .  S
C2094      C2097   1.445       .  S
C2097      N2099   1.157       .  T
C2098      N2100   1.157       .  T
C2101      C2102   1.402       .  A
C2102      C2103   1.403       .  A
C2102      H2107   1.085       .  S
C2103      C2110   1.445       .  S
C2104      C2105   1.407   1_556  A
C2105      C2106   1.404       .  A
C2105      H2108   1.085       .  S
C2106      C2109   1.443       .  S
C2109      N2111   1.157       .  T
C2110      N2112   1.157       .  T
C2113      C2114   1.402       .  A
C2113      C2118   1.411       .  A
C2114      C2115   1.406       .  A
C2114      H2119   1.082       .  S
C2115      C2116   1.411       .  A
C2115      C2122   1.441       .  S
C2116      C2117   1.403       .  A
C2117      C2118   1.392       .  A
C2117      H2120   1.085       .  S
C2118      C2121   1.446       .  S
C2121      N2123   1.157       .  T
C2122      N2124   1.157       .  T
C2125      C2126   1.402       .  A
C2126      C2127   1.396       .  A
C2126      H2131   1.085       .  S
C2127      C2128   1.408       .  A
C2127      C2134   1.441       .  S
C2129      C2130   1.403       .  A
C2129      H2132   1.083       .  S
C2130      C2133   1.443       .  S
C2133      N2135   1.157       .  T
C2134      N2136   1.156       .  T
C2137      C2138   1.403       .  A
C2137      C2142   1.411       .  A
C2138      C2139   1.394       .  A
C2138      H2143   1.085       .  S
C2139      C2140   1.410       .  A
C2139      C2146   1.445       .  S
C2140      C2141   1.403       .  A
C2141      C2142   1.405       .  A
C2141      H2144   1.083       .  S
C2142      C2145   1.441       .  S
C2145      N2147   1.157       .  T
C2146      N2148   1.157       .  T
C2149      C2150   1.417       .  A
C2149      C2154   1.414       .  A
C2150      C2151   1.401       .  A
C2150      H2155   1.073       .  S
C2151      C2152   1.414       .  A
C2151      C2158   1.446       .  S
C2153      H2156   1.075       .  S
C2157      N2159   1.158       .  T
C2158      N2160   1.157       .  T
C2161      C2162   1.403       .  A
C2161      C2166   1.413       .  A
C2162      C2163   1.404       .  A
C2162      H2167   1.084       .  S
C2163      C2164   1.410       .  A
C2163      C2170   1.443       .  S
C2164      C2165   1.401       .  A
C2165      C2166   1.399       .  A
C2165      H2168   1.084       .  S
C2166      C2169   1.445       .  S
C2169      N2171   1.157       .  T
C2170      N2172   1.157       .  T
C2173      C2174   1.406       .  A
C2173      C2178   1.412       .  A
C2174      C2175   1.403       .  A
C2174      H2179   1.082       .  S
C2175      C2176   1.421       .  A
C2175      C2182   1.442       .  S
C2176      C2177   1.414       .  A
C2177      C2178   1.400       .  A
C2177      H2180   1.081       .  S
C2181      N2183   1.157       .  T
C2182      N2184   1.158       .  T
C2185      C2186   1.416       .  A
C2185      C2190   1.422       .  A
C2186      C2187   1.410       .  A
C2186      H2191   1.083       .  S
C2187      C2188   1.408       .  A
C2187      C2194   1.443       .  S
C2188      C2189   1.399       .  A
C2189      C2190   1.396       .  A
C2189      H2192   1.086       .  S
C2190      C2193   1.442       .  S
C2193      N2195   1.157       .  T
C2194      N2196   1.157       .  T
C2197      C2198   1.404       .  A
C2197      C2202   1.412       .  A
C2198      C2199   1.405       .  A
C2198      H2203   1.085       .  S
C2199      C2200   1.409       .  A
C2199      C2206   1.442       .  S
C2200      C2201   1.398       .  A
C2201      C2202   1.394       .  A
C2201      H2204   1.086       .  S
C2202      C2205   1.442       .  S
C2205      N2207   1.157       .  T
C2206      N2208   1.157       .  T
C2209      C2210   1.403       .  A
C2210      C2211   1.397       .  A
C2210      H2215   1.080       .  S
C2211      C2218   1.444       .  S
C2212      C2213   1.398       .  A
C2213      C2214   1.401       .  A
C2213      H2216   1.077       .  S
C2214      C2217   1.443       .  S
C2217      N2219   1.157       .  T
C2218      N2220   1.157       .  T
C2221      C2222   1.411       .  A
C2222      C2223   1.410       .  A
C2222      H2227   1.079       .  S
C2223      C2224   1.420       .  A
C2223      C2230   1.443       .  S
C2225      C2226   1.393       .  A
C2225      H2228   1.083       .  S
C2226      C2229   1.443       .  S
C2229      N2231   1.156       .  T
C2230      N2232   1.157       .  T
C2233      C2238   1.413       .  A
C2234      C2235   1.402       .  A
C2234      H2239   1.085       .  S
C2235      C2236   1.406       .  A
C2235      C2242   1.443       .  S
C2237      C2238   1.401       .  A
C2237      H2240   1.085       .  S
C2238      C2241   1.444       .  S
C2241      N2243   1.157       .  T
C2242      N2244   1.157       .  T
C2245      C2246   1.403   1_556  A
C2246      H2251   1.085       .  S
C2247      C2248   1.412       .  A
C2247      C2254   1.442       .  S
C2248      C2249   1.405       .  A
C2249      C2250   1.405       .  A
C2249      H2252   1.085       .  S
C2250      C2253   1.444       .  S
C2253      N2255   1.157       .  T
C2254      N2256   1.157       .  T
C2257      C2262   1.412       .  A
C2258      C2259   1.403   1_554  A
C2258      H2263   1.084   1_554  S
C2259      C2266   1.442       .  S
C2260      C2261   1.403       .  A
C2261      C2262   1.399       .  A
C2261      H2264   1.085       .  S
C2262      C2265   1.444       .  S
C2265      N2267   1.157       .  T
C2266      N2268   1.157       .  T
C2269      C2270   1.401       .  A
C2269      C2274   1.410       .  A
C2270      C2271   1.406       .  A
C2271      C2272   1.417       .  A
C2271      C2278   1.443       .  S
C2272      C2273   1.404       .  A
C2273      C2274   1.397       .  A
C2273      H2276   1.085       .  S
C2274      C2277   1.444       .  S
C2277      N2279   1.157       .  T
C2278      N2280   1.157       .  T
C2281      C2282   1.401       .  A
C2281      C2286   1.410       .  A
C2282      C2283   1.403       .  A
C2282      H2287   1.085       .  S
C2283      C2284   1.416       .  A
C2283      C2290   1.444       .  S
C2284      C2285   1.404       .  A
C2285      C2286   1.400       .  A
C2285      H2288   1.085       .  S
C2286      C2289   1.442       .  S
C2289      N2291   1.157       .  T
C2290      N2292   1.157       .  T
C2293      C2294   1.402       .  A
C2293      C2298   1.414       .  A
C2294      C2295   1.397       .  A
C2294      H2299   1.085       .  S
C2295      C2296   1.408       .  A
C2295      C2302   1.442       .  S
C2296      C2297   1.402       .  A
C2297      C2298   1.403       .  A
C2297      H2300   1.085       .  S
C2298      C2301   1.444       .  S
C2301      N2303   1.157       .  T
C2302      N2304   1.156       .  T
C2305      C2306   1.399       .  A
C2305      C2310   1.411       .  A
C2306      C2307   1.400       .  A
C2306      H2311   1.085       .  S
C2307      C2308   1.419       .  A
C2307      C2314   1.444       .  S
C2308      C2309   1.404       .  A
C2309      C2310   1.400       .  A
C2309      H2312   1.085       .  S
C2310      C2313   1.444       .  S
C2313      N2315   1.157       .  T
C2314      N2316   1.157       .  T
C2317      C2318   1.398       .  A
C2317      C2322   1.405       .  A
C2318      C2319   1.406       .  A
C2318      H2323   1.085       .  S
C2319      C2320   1.422       .  A
C2319      C2326   1.440       .  S
C2320      C2321   1.407       .  A
C2321      C2322   1.395       .  A
C2321      H2324   1.082       .  S
C2322      C2325   1.445       .  S
C2325      N2327   1.157       .  T
C2326      N2328   1.157       .  T
