geometry optimzed in LAMMPS
_audit_creation_date              2020-12-01 
_audit_creation_method            'lammps2cif' 
_symmetry_space_group_name_H-M    'P1' 
_symmetry_Int_Tables_number       1 
_symmetry_cell_setting            triclinic 
loop_ 
_symmetry_equiv_pos_as_xyz 
  x,y,z 
_cell_length_a                    25.83458385 
_cell_length_b                    29.040023401663163 
_cell_length_c                    48.381493531112895 
_cell_angle_alpha                 89.92312989668821 
_cell_angle_beta                  90.029511248606 
_cell_angle_gamma                 89.9993867935977 
loop_ 
_atom_site_label 
_atom_site_type_symbol 
_atom_site_fract_x 
_atom_site_fract_y 
_atom_site_fract_z 
_atom_site_charge 
O1          O  0.13549117  0.12736359  0.87160268    -0.84700
O2          O  0.10552932  0.12965995  0.92544136    -0.81700
C3          C  0.09451405  0.14383982  0.94924932     0.98800
O4          O  0.09298304  0.18666764  0.95430346    -0.81700
O5          O  0.19251200  0.21510045  0.94678262    -0.84400
C6          C  0.23470372  0.22583583  0.93563384     1.03300
O7          O  0.23619733  0.23682738  0.91018147    -0.77200
O8          O  0.21030390  0.15696946  0.88282864    -0.77300
C9          C  0.18330948  0.12243585  0.87658518     1.03300
O10         O  0.06489455  0.20274359  0.86051897    -0.84700
O11         O  0.02711974  0.19665864  0.91385907    -0.81700
C12         C  0.02093596  0.23733398  0.92276135     0.98800
O13         O  0.05865931  0.26480741  0.92268251    -0.81800
O14         O  0.15950489  0.29812431  0.91961340    -0.84400
C15         C  0.16656320  0.31292995  0.89518681     1.03300
O16         O  0.16417051  0.28566835  0.87504080    -0.77200
O17         O  0.14405749  0.20822247  0.84440329    -0.77300
C18         C  0.09529939  0.21083219  0.84075216     1.03300
Cr19       Cr  0.08642208  0.16727243  0.89319295     1.93700
Cr20       Cr  0.12640466  0.23932738  0.93349519     1.93200
Cr21       Cr  0.18496901  0.22090896  0.87955185     1.39100
O22         O  0.13255236  0.20945756  0.90200448    -1.22400
O23         O  0.80357694  0.85914030  0.11555988    -0.84700
O24         O  0.77591479  0.78576109  0.08343769    -0.81700
C25         C  0.77525524  0.80246489  0.05909955     0.98800
O26         O  0.81641184  0.81771552  0.04867379    -0.81700
O27         O  0.91738110  0.84714844  0.04169508    -0.84400
C28         C  0.91838535  0.88803120  0.05118917     1.03300
O29         O  0.90629220  0.89497309  0.07581988    -0.77200
O30         O  0.87841093  0.88614988  0.12876623    -0.77300
C31         C  0.83063536  0.89227804  0.12395920     1.03300
O32         O  0.87045415  0.80210932  0.14983587    -0.84700
O33         O  0.85034684  0.73109210  0.11351227    -0.81700
C34         C  0.84547668  0.70836318  0.09154426     0.98800
O35         O  0.84975829  0.72831919  0.06817998    -0.81800
O36         O  0.95033698  0.76063796  0.06578727    -0.84400
C37         C  0.98914199  0.78644523  0.06809687     1.03300
O38         O  0.98478995  0.82519947  0.08002664    -0.77200
O39         O  0.94880429  0.80869112  0.13299060    -0.77300
C40         C  0.91935444  0.80159742  0.15320496     1.03300
Cr41       Cr  0.82855106  0.79558849  0.11430121     1.93700
Cr42       Cr  0.88311394  0.78982398  0.05838010     1.93200
Cr43       Cr  0.92668214  0.85073145  0.10379892     1.39100
O44         O  0.87967904  0.81161415  0.09222762    -1.22400
O45         O  0.30404659  0.65513410  0.87745802    -0.84700
O46         O  0.27475069  0.73028783  0.90839576    -0.81700
C47         C  0.27405013  0.71511138  0.93306590     0.98800
O48         O  0.31499523  0.69996564  0.94373609    -0.81700
O49         O  0.41601523  0.67193902  0.95227163    -0.84400
C50         C  0.41831040  0.63072835  0.94331624     1.03300
O51         O  0.40748195  0.62277899  0.91857969    -0.77200
O52         O  0.38013721  0.62875197  0.86546431    -0.77300
C53         C  0.33212019  0.62232013  0.86953864     1.03300
O54         O  0.37073565  0.71188796  0.84295907    -0.84700
O55         O  0.34857309  0.78420267  0.87780407    -0.81700
C56         C  0.34366782  0.80814034  0.89930741     0.98800
O57         O  0.34776070  0.78926771  0.92305027    -0.81800
O58         O  0.44832569  0.75814026  0.92712780    -0.84400
C59         C  0.48761682  0.73285085  0.92548212     1.03300
O60         O  0.48436812  0.69377738  0.91379752    -0.77200
O61         O  0.44916109  0.70746358  0.85995577    -0.77300
C62         C  0.41955722  0.71486076  0.83974112     1.03300
Cr63       Cr  0.32804746  0.71926522  0.87805426     1.93700
Cr64       Cr  0.38143519  0.72830296  0.93423631     1.93200
Cr65       Cr  0.42730131  0.66626969  0.88997012     1.39100
O66         O  0.37918413  0.70503086  0.90068219    -1.22400
O67         O  0.63491909  0.39061765  0.12255780    -0.84700
O68         O  0.60432954  0.38664865  0.06938293    -0.81700
C69         C  0.59339588  0.37280040  0.04554335     0.98800
O70         O  0.59367276  0.32999525  0.04010554    -0.81700
O71         O  0.69415588  0.30357778  0.04805579    -0.84400
C72         C  0.73673563  0.29401126  0.05919531     1.03300
O73         O  0.73853467  0.28305893  0.08459714    -0.77200
O74         O  0.70999365  0.36264553  0.11055915    -0.77300
C75         C  0.68229263  0.39661278  0.11681390     1.03300
O76         O  0.56688864  0.31321502  0.13428242    -0.84700
O77         O  0.52817399  0.31795257  0.08106558    -0.81700
C78         C  0.52279636  0.27748642  0.07167584     0.98800
O79         O  0.56117607  0.25069218  0.07135223    -0.81800
O80         O  0.66328159  0.21988388  0.07572559    -0.84400
C81         C  0.67207543  0.20613814  0.10028659     1.03300
O82         O  0.66883423  0.23379830  0.12020001    -0.77200
O83         O  0.64647823  0.31162968  0.15011581    -0.77300
C84         C  0.59794920  0.30768290  0.15406251     1.03300
Cr85       Cr  0.58668418  0.34893385  0.10149924     1.93700
Cr86       Cr  0.62860281  0.27782500  0.06114587     1.93200
Cr87       Cr  0.68710320  0.29862105  0.11495749     1.39100
O88         O  0.63387204  0.30789395  0.09263669    -1.22400
O89         O  0.88638771  0.12348307  0.62618265    -0.84700
O90         O  0.91483871  0.12158961  0.57267782    -0.81700
C91         C  0.92571623  0.13312561  0.54841631     0.98800
O92         O  0.92458770  0.17525158  0.54130352    -0.81700
O93         O  0.82383198  0.20185740  0.54902335    -0.84400
C94         C  0.78215365  0.21386327  0.56021928     1.03300
O95         O  0.78204119  0.22793283  0.58509026    -0.77200
O96         O  0.81135635  0.15115279  0.61391597    -0.77300
C97         C  0.83876749  0.11732147  0.62093393     1.03300
O98         O  0.95576819  0.20178723  0.63397727    -0.84700
O99         O  0.99182820  0.19176492  0.58049203    -0.81700
C100        C  0.99600916  0.23158847  0.56982012     0.98800
O101        O  0.95713072  0.25772752  0.56895553    -0.81800
O102        O  0.85546276  0.28930593  0.57269218    -0.84400
C103        C  0.84959352  0.30617796  0.59681206     1.03300
O104        O  0.85412279  0.28057582  0.61769370    -0.77200
O105        O  0.87691514  0.20577277  0.65057239    -0.77300
C106        C  0.92564953  0.20961469  0.65385012     1.03300
Cr107      Cr  0.93410052  0.16276338  0.60291668     1.93700
Cr108      Cr  0.88984516  0.22943295  0.56030274     1.93200
Cr109      Cr  0.83473000  0.21532648  0.61548877     1.39100
O110        O  0.88651632  0.20299555  0.59299206    -1.22400
O111        O  0.21031606  0.85725416  0.37665047    -0.84700
O112        O  0.24033740  0.78107968  0.40613916    -0.81700
C113        C  0.24246656  0.79574235  0.43090680     0.98800
O114        O  0.20210582  0.80974255  0.44264119    -0.81700
O115        O  0.10250782  0.83725163  0.45347427    -0.84400
C116        C  0.10272430  0.87909943  0.44576961     1.03300
O117        O  0.11201226  0.88854848  0.42107932    -0.77200
O118        O  0.13457586  0.88660432  0.36723091    -0.77300
C119        C  0.18307955  0.89158793  0.37033271     1.03300
O120        O  0.13932889  0.80252045  0.34283629    -0.84700
O121        O  0.16418479  0.72802662  0.37627813    -0.81700
C122        C  0.17164592  0.70391302  0.39758589     0.98800
O123        O  0.16811574  0.72211294  0.42143545    -0.81800
O124        O  0.06728670  0.75371655  0.42715285    -0.84400
C125        C  0.02820514  0.77958331  0.42647161     1.03300
O126        O  0.03200020  0.81955632  0.41584895    -0.77200
O127        O  0.06260580  0.81007353  0.36159721    -0.77300
C128        C  0.09009205  0.80221883  0.34072948     1.03300
Cr129      Cr  0.18500541  0.79329077  0.37685420     1.93700
Cr130      Cr  0.13508719  0.78222609  0.43380481     1.93200
Cr131      Cr  0.08831100  0.84806020  0.39188064     1.39100
O132        O  0.13573378  0.80722795  0.40064018    -1.22400
O133        O  0.71261509  0.65338880  0.61635728    -0.84700
O134        O  0.74131105  0.72993084  0.58678060    -0.81700
C135        C  0.74305682  0.71530481  0.56201694     0.98800
O136        O  0.70253538  0.70174582  0.55024728    -0.81700
O137        O  0.60309787  0.67350902  0.53989337    -0.84400
C138        C  0.60359407  0.63164998  0.54748804     1.03300
O139        O  0.61390083  0.62196428  0.57208326    -0.77200
O140        O  0.63705977  0.62386472  0.62597826    -0.77300
C141        C  0.68538502  0.61891713  0.62242424     1.03300
O142        O  0.64188211  0.70848092  0.65056931    -0.84700
O143        O  0.66539017  0.78229425  0.61709854    -0.81700
C144        C  0.67206912  0.80672147  0.59588991     0.98800
O145        O  0.66788146  0.78889450  0.57196716    -0.81800
O146        O  0.56700143  0.75613641  0.56648408    -0.84400
C147        C  0.52876943  0.72922450  0.56670420     1.03300
O148        O  0.53318364  0.68968654  0.57780863    -0.77200
O149        O  0.56448873  0.69911807  0.63247961    -0.77300
C150        C  0.59272638  0.70826563  0.65296959     1.03300
Cr151      Cr  0.68672164  0.71736828  0.61630051     1.93700
Cr152      Cr  0.63532666  0.72858167  0.55958284     1.93200
Cr153      Cr  0.59012446  0.66191267  0.60164588     1.39100
O154        O  0.63691896  0.70331560  0.59275073    -1.22400
O155        O  0.38788272  0.38641251  0.37027788    -0.84700
O156        O  0.41645420  0.38594888  0.42371581    -0.81700
C157        C  0.42686015  0.37356868  0.44787770     0.98800
O158        O  0.42555068  0.33120575  0.45437619    -0.81700
O159        O  0.32413419  0.30650664  0.44574738    -0.84400
C160        C  0.28262358  0.29401908  0.43451543     1.03300
O161        O  0.28253235  0.28081975  0.40946730    -0.77200
O162        O  0.31198438  0.35842141  0.38101893    -0.77300
C163        C  0.33989652  0.39235606  0.37465754     1.03300
O164        O  0.45629143  0.30805679  0.36120721    -0.84700
O165        O  0.49248527  0.31448145  0.41484610    -0.81700
C166        C  0.49583905  0.27403337  0.42484879     0.98800
O167        O  0.45618397  0.24891075  0.42574493    -0.81800
O168        O  0.35425323  0.21948594  0.42178910    -0.84400
C169        C  0.34915907  0.20277452  0.39763217     1.03300
O170        O  0.35462612  0.22829802  0.37674204    -0.77200
O171        O  0.37766620  0.30428722  0.34435119    -0.77300
C172        C  0.42644519  0.30146377  0.34103303     1.03300
Cr173      Cr  0.43510821  0.34563323  0.39291408     1.93700
Cr174      Cr  0.38971146  0.27829560  0.43460241     1.93200
Cr175      Cr  0.33537053  0.29392616  0.37927225     1.39100
O176        O  0.38698070  0.30556185  0.40212875    -1.22400
C177        C  0.53460501  0.56443202  0.49127192    -0.27500
C178        C  0.53324665  0.52027612  0.50343589     0.06100
C179        C  0.56064378  0.51285081  0.52814314     0.25700
C180        C  0.58749668  0.54864718  0.54053428    -0.12000
C181        C  0.58589743  0.59352257  0.52960937    -0.26000
C182        C  0.56009748  0.60103245  0.50440368     0.36500
C183        C  0.50321639  0.48203094  0.49078469     0.06100
F184        F  0.55889388  0.47172911  0.54148929    -0.19700
H185        H  0.60700816  0.54148906  0.55992175     0.15900
F186        F  0.55740885  0.64380171  0.49314243    -0.23500
H187        H  0.51505110  0.57089145  0.47183467     0.17700
C188        C  0.45350765  0.48926554  0.47955977     0.25700
C189        C  0.42689521  0.45288661  0.46705498    -0.12000
C190        C  0.44826230  0.40844564  0.46658803    -0.26000
C191        C  0.49642966  0.40066933  0.47906967     0.36600
C192        C  0.52410681  0.43728524  0.49034643    -0.27600
F193        F  0.43062919  0.53131025  0.48058172    -0.19800
H194        H  0.39000078  0.45957384  0.45713550     0.15900
F195        F  0.51863912  0.35838150  0.47842156    -0.23500
H196        H  0.56274940  0.43065159  0.49807418     0.17700
C197        C  0.83751555  0.69367577  0.50409195    -0.27500
C198        C  0.86684074  0.73441155  0.50442254     0.06100
C199        C  0.85927268  0.76607451  0.52609134     0.25700
C200        C  0.82158879  0.75794557  0.54638333    -0.12000
C201        C  0.79053804  0.71832351  0.54514050    -0.26000
C202        C  0.79963754  0.68576513  0.52419348     0.36500
C203        C  0.90450015  0.74391777  0.48187105     0.06100
F204        F  0.88773819  0.80530029  0.52745107    -0.19700
H205        H  0.81473565  0.78365824  0.56198033     0.15900
F206        F  0.77058098  0.64688355  0.52256396    -0.23500
H207        H  0.84250344  0.66894196  0.48775893     0.17700
C208        C  0.94169707  0.71099415  0.47426292     0.25700
C209        C  0.97940868  0.72166462  0.45452289    -0.12000
C210        C  0.98102897  0.76545842  0.44196084    -0.26000
C211        C  0.94165808  0.79732400  0.44829745     0.36600
C212        C  0.90388275  0.78656825  0.46806734    -0.27600
F213        F  0.94368309  0.66943591  0.48710867    -0.19800
H214        H  0.00890710  0.69637405  0.45017306     0.15900
F215        F  0.94099965  0.83982950  0.43660333    -0.23500
H216        H  0.87483736  0.81192138  0.47304033     0.17700
C217        C  0.33475733  0.81068710  0.49073537    -0.27500
C218        C  0.36868195  0.77345499  0.48709436     0.06100
C219        C  0.36418615  0.74657374  0.46292969     0.25700
C220        C  0.32529169  0.75599736  0.44346451    -0.12000
C221        C  0.29006804  0.79209199  0.44783035    -0.26000
C222        C  0.29607314  0.82008170  0.47138740     0.42900
C223        C  0.40751028  0.76254659  0.50893939     0.06100
F224        F  0.39694154  0.71088185  0.45827161    -0.19700
H225        H  0.32111917  0.73360649  0.42569998     0.15900
F226        F  0.26331634  0.85573265  0.47625961    -0.23500
H227        H  0.33697542  0.83171651  0.50917409     0.17700
C228        C  0.43862811  0.79737684  0.52048165     0.25700
C229        C  0.47551661  0.78673137  0.54069030    -0.12000
C230        C  0.48243300  0.74119397  0.54991205    -0.26000
C231        C  0.45009284  0.70653583  0.53899108     0.36600
C232        C  0.41306340  0.71726679  0.51880457    -0.27600
F233        F  0.43518876  0.84145313  0.51128486    -0.19800
H234        H  0.50018487  0.81403397  0.54837171     0.15900
F235        F  0.45608099  0.66181594  0.54655122    -0.23500
H236        H  0.38896764  0.68994622  0.51064906     0.17700
C237        C  0.28633407  0.98489833  0.37132345    -0.27500
C238        C  0.25668214  0.02457679  0.37601457     0.06100
C239        C  0.20232220  0.02103843  0.37521417     0.25700
C240        C  0.17836039  0.97810568  0.37140468    -0.12000
C241        C  0.20807488  0.93780031  0.36851175    -0.26000
C242        C  0.26253611  0.94198509  0.36772344     0.36500
C243        C  0.28278738  0.06906634  0.38242144     0.06100
F244        F  0.17238527  0.05906341  0.37843512    -0.19700
H245        H  0.13651387  0.97616550  0.37199507     0.15900
F246        F  0.29310184  0.90438884  0.36435193    -0.23500
H247        H  0.32820693  0.98685747  0.37150734     0.17700
C248        C  0.27090642  0.09353395  0.40671681     0.25700
C249        C  0.29495109  0.13577851  0.41231765    -0.12000
C250        C  0.33084012  0.15477904  0.39369821    -0.26000
C251        C  0.34400805  0.12958379  0.36985904     0.36600
C252        C  0.32053745  0.08697435  0.36447891    -0.27600
F253        F  0.23607628  0.07652462  0.42507834    -0.19800
H254        H  0.28387070  0.15458493  0.43073163     0.15900
F255        F  0.37929019  0.14634036  0.35165786    -0.23500
H256        H  0.33087472  0.06842478  0.34585635     0.17700
C257        C  0.20552801  0.58808219  0.36589824    -0.27500
C258        C  0.24033227  0.57022428  0.38548749     0.06100
C259        C  0.24935511  0.59518752  0.40992459     0.25700
C260        C  0.22454239  0.63743314  0.41439173    -0.12000
C261        C  0.19090401  0.65603396  0.39442199    -0.26000
C262        C  0.18131471  0.63065904  0.37014628     0.36500
C263        C  0.26650747  0.52537089  0.38046991     0.06100
F264        F  0.28205507  0.57865073  0.42953618    -0.19700
H265        H  0.23324642  0.65646724  0.43306833     0.15900
F266        F  0.14893669  0.64716862  0.35037055    -0.23500
H267        H  0.19794262  0.56941031  0.34695605     0.17700
C268        C  0.23731280  0.48559176  0.37504450     0.25700
C269        C  0.26179344  0.44297798  0.37180724    -0.12000
C270        C  0.31598428  0.43895403  0.37365081    -0.26000
C271        C  0.34542845  0.47915760  0.37808747     0.36600
C272        C  0.32076300  0.52183597  0.38158949    -0.27600
F273        F  0.18483870  0.48752681  0.37422151    -0.19800
H274        H  0.23801868  0.41272583  0.36861284     0.15900
F275        F  0.39772346  0.47700776  0.38049030    -0.23500
H276        H  0.34402903  0.55215797  0.38553735     0.17700
C277        C  0.82053782  0.98693246  0.61997228    -0.27500
C278        C  0.76755028  0.98390728  0.61363961     0.06100
C279        C  0.73812565  0.02418890  0.61171041     0.25700
C280        C  0.76132825  0.06704854  0.61555947    -0.12000
C281        C  0.81466184  0.07081139  0.62128536    -0.26000
C282        C  0.84407632  0.03009185  0.62384510     0.36500
C283        C  0.74250291  0.93893549  0.60878032     0.06100
F284        F  0.68709143  0.02210997  0.60513336    -0.19700
H285        H  0.73756705  0.09741323  0.61319051     0.15900
F286        F  0.89564108  0.03183027  0.62914857    -0.23500
H287        H  0.84359181  0.95601029  0.62158384     0.17700
C288        C  0.74809677  0.91618472  0.58339810     0.25700
C289        C  0.72254381  0.87435852  0.57865281    -0.12000
C290        C  0.69136270  0.85447256  0.59932871    -0.26000
C291        C  0.68485847  0.87814248  0.62451009     0.36600
C292        C  0.71003372  0.92013530  0.62907860    -0.27600
F293        F  0.77826066  0.93442096  0.56319113    -0.19800
H294        H  0.72871091  0.85681143  0.55931813     0.15900
F295        F  0.65452457  0.86063224  0.64488343    -0.23500
H296        H  0.70461587  0.93776457  0.64844902     0.17700
C297        C  0.78759818  0.52473409  0.62450153    -0.27500
C298        C  0.75940114  0.48653864  0.61512159     0.06100
C299        C  0.70575319  0.49106763  0.61098665     0.25700
C300        C  0.68122313  0.53355501  0.61529136    -0.12000
C301        C  0.70982582  0.57253640  0.62330869    -0.26000
C302        C  0.76333742  0.56745231  0.62828904     0.36500
C303        C  0.78602172  0.44204744  0.60985089     0.06100
F304        F  0.67721502  0.45442622  0.60257549    -0.19700
H305        H  0.64012125  0.53646272  0.61108711     0.15900
F306        F  0.79241713  0.60396258  0.63637441    -0.23500
H307        H  0.82888174  0.52174408  0.62813163     0.17700
C308        C  0.78876429  0.42337881  0.58307126     0.25700
C309        C  0.81191290  0.38026222  0.57863812    -0.12000
C310        C  0.83230598  0.35472849  0.60086745    -0.26000
C311        C  0.83078638  0.37439910  0.62757655     0.36600
C312        C  0.80823322  0.41765234  0.63185441    -0.27600
F313        F  0.76875791  0.44678123  0.56124139    -0.19800
H314        H  0.81220529  0.36616846  0.55792195     0.15900
F315        F  0.84992339  0.35146324  0.64981495    -0.23500
H316        H  0.80674884  0.43161217  0.65259621     0.17700
C317        C  0.05938625  0.99732710  0.46744969    -0.27500
C318        C  0.03674855  0.98889239  0.49323653     0.06100
C319        C  0.04105077  0.94447126  0.50492471     0.25700
C320        C  0.06517667  0.90888744  0.49018371    -0.12000
C321        C  0.08619785  0.91732795  0.46390671    -0.26000
C322        C  0.08473750  0.96260449  0.45322917     0.36500
C323        C  0.00694497  0.02635778  0.50670680     0.06100
F324        F  0.02151659  0.93524504  0.53036990    -0.19700
H325        H  0.06586605  0.87454754  0.49891091     0.15900
F326        F  0.10543411  0.97334951  0.42824167    -0.23500
H327        H  0.05586413  0.03063698  0.45757581     0.17700
C328        C  0.02504180  0.07219731  0.50610629     0.25700
C329        C  0.99530471  0.10762255  0.51727664    -0.12000
C330        C  0.94831652  0.09791316  0.53042890    -0.26000
C331        C  0.93008990  0.05232942  0.53120376     0.36600
C332        C  0.95866384  0.01706593  0.51888775    -0.27600
F333        F  0.07260330  0.08263804  0.49594643    -0.19800
H334        H  0.01079779  0.14225708  0.51737577     0.15900
F335        F  0.88524330  0.04181077  0.54441155    -0.23500
H336        H  0.94306956  0.98248415  0.51902433     0.17700
C337        C  0.69001368  0.19124910  0.50111043    -0.27500
C338        C  0.65841890  0.23050652  0.50212744     0.06100
C339        C  0.66348342  0.26096370  0.52461454     0.25700
C340        C  0.70141331  0.25343629  0.54482949    -0.12000
C341        C  0.73520906  0.21576957  0.54278329    -0.26000
C342        C  0.72833906  0.18404796  0.52108291     0.36500
C343        C  0.62076210  0.23963971  0.47956515     0.06100
F344        F  0.63223644  0.29835338  0.52682381    -0.19700
H345        H  0.70621524  0.27844612  0.56122157     0.15900
F346        F  0.75970937  0.14673673  0.51874814    -0.23500
H347        H  0.68632185  0.16705355  0.48420596     0.17700
C348        C  0.62049886  0.28201211  0.46545121     0.25700
C349        C  0.58242366  0.29144711  0.44562932    -0.12000
C350        C  0.54337160  0.25912555  0.43977413    -0.26000
C351        C  0.54608659  0.21540575  0.45251682     0.36600
C352        C  0.58451550  0.20589078  0.47211769    -0.27600
F353        F  0.65654464  0.31464928  0.47117906    -0.19800
H354        H  0.58181793  0.32516874  0.43608416     0.15900
F355        F  0.51019876  0.18246394  0.44713583    -0.23500
H356        H  0.58461692  0.17273259  0.48236864     0.17700
C357        C  0.08725355  0.29736791  0.52295624    -0.27500
C358        C  0.12028136  0.26211645  0.51387559     0.06100
C359        C  0.11643608  0.21833276  0.52618035     0.25700
C360        C  0.07840740  0.20960711  0.54612292    -0.12000
C361        C  0.04324311  0.24420477  0.55404789    -0.26000
C362        C  0.04910052  0.28865734  0.54275990     0.36500
C363        C  0.15910730  0.27189456  0.49202397     0.06100
F364        F  0.14928116  0.18393542  0.51889039    -0.19700
H365        H  0.07500472  0.17507506  0.55437859     0.15900
F366        F  0.01682370  0.32344748  0.55006186    -0.23500
H367        H  0.08996762  0.33149829  0.51403994     0.17700
C368        C  0.16378074  0.24377383  0.46843224     0.25700
C369        C  0.20187959  0.25304223  0.44858015    -0.12000
C370        C  0.23610368  0.29014800  0.45207196    -0.26000
C371        C  0.23003244  0.31921344  0.47509975     0.36600
C372        C  0.19175741  0.31023251  0.49472918    -0.27600
F373        F  0.13176375  0.20726625  0.46461838    -0.19800
H374        H  0.20621975  0.22991468  0.43119311     0.15900
F375        F  0.26201536  0.35573467  0.47901607    -0.23500
H376        H  0.18864448  0.33252462  0.51257385     0.17700
C377        C  0.44680788  0.29804969  0.26313001    -0.27500
C378        C  0.50015322  0.28827194  0.26132541     0.06100
C379        C  0.52748464  0.27911118  0.28589952     0.25700
C380        C  0.50266892  0.28202360  0.31149898    -0.12000
C381        C  0.44980625  0.29334826  0.31337692    -0.26000
C382        C  0.42166792  0.29995108  0.28878512     0.36500
C383        C  0.52733219  0.28977077  0.23407121     0.06100
F384        F  0.57831620  0.26731742  0.28529118    -0.19700
H385        H  0.52526615  0.27591302  0.33000348     0.15900
F386        F  0.37044907  0.31026354  0.28946937    -0.23500
H387        H  0.42470211  0.30588175  0.24471219     0.17700
C388        C  0.50433786  0.27136098  0.21011305     0.25700
C389        C  0.52832322  0.27641844  0.18438520    -0.12000
C390        C  0.57632676  0.29885682  0.18192378    -0.26000
C391        C  0.60062884  0.31536896  0.20592100     0.36600
C392        C  0.57595903  0.31146705  0.23161099    -0.27600
F393        F  0.45874357  0.24824404  0.21146607    -0.19800
H394        H  0.50911236  0.26286553  0.16624003     0.15900
F395        F  0.64683710  0.33746973  0.20441439    -0.23500
H396        H  0.59429744  0.32684292  0.24945779     0.17700
C397        C  0.56013840  0.75251009  0.72505283    -0.27500
C398        C  0.51600398  0.72603351  0.73155117     0.06100
C399        C  0.49746628  0.69462341  0.71173956     0.25700
C400        C  0.52248309  0.68982640  0.68631692    -0.12000
C401        C  0.56722082  0.71532997  0.68009599    -0.26000
C402        C  0.58586685  0.74694531  0.69968852     0.36500
C403        C  0.49099869  0.72907687  0.75933797     0.06100
F404        F  0.45641451  0.66695937  0.71732656    -0.19700
H405        H  0.50752213  0.66499631  0.67165186     0.15900
F406        F  0.62807454  0.77315822  0.69408544    -0.23500
H407        H  0.57480675  0.77752707  0.73966109     0.17700
C408        C  0.52104021  0.72782056  0.78358373     0.25700
C409        C  0.49728625  0.72529859  0.80950073    -0.12000
C410        C  0.44301017  0.72349061  0.81206824    -0.26000
C411        C  0.41281630  0.72670073  0.78788884     0.36600
C412        C  0.43667638  0.72979454  0.76190364    -0.27600
F413        F  0.57348740  0.72619864  0.78228631    -0.19800
H414        H  0.52181910  0.72303573  0.82761652     0.15900
F415        F  0.36036082  0.72525906  0.78914820    -0.23500
H416        H  0.41250933  0.73169333  0.74363756     0.17700
C417        C  0.50315697  0.43407793  0.99695243    -0.27500
C418        C  0.52080539  0.47978086  0.99933536     0.06100
C419        C  0.56672649  0.48845274  0.01402229     0.25700
C420        C  0.59267809  0.45248817  0.02725045    -0.12000
C421        C  0.57386619  0.40716976  0.02577523    -0.26000
C422        C  0.52968628  0.39794190  0.00979717     0.36500
C423        C  0.49164486  0.51794690  0.98608844     0.06100
F424        F  0.58634407  0.53170490  0.01577636    -0.19700
H425        H  0.62661359  0.46030306  0.03957165     0.15900
F426        F  0.50984187  0.35472426  0.00837860    -0.23500
H427        H  0.46772000  0.42650302  0.98587747     0.17700
C428        C  0.47557021  0.51388193  0.95854685     0.25700
C429        C  0.44938681  0.54988030  0.94574189    -0.12000
C430        C  0.43936045  0.59159325  0.95969096    -0.26000
C431        C  0.45467134  0.59556908  0.98748464     0.36600
C432        C  0.48028824  0.55882494  0.00058543    -0.27600
F433        F  0.48743560  0.47593042  0.94344718    -0.19800
H434        H  0.43886028  0.54544170  0.92424488     0.15900
F435        F  0.44579744  0.63490894  0.00181298    -0.23500
H436        H  0.49167996  0.56244291  0.02201663     0.17700
C437        C  0.01364186  0.81547780  0.21239448    -0.27500
C438        C  0.98988399  0.79046400  0.23367002     0.06100
C439        C  0.94171844  0.76920594  0.22847914     0.25700
C440        C  0.91843100  0.77275383  0.20232569    -0.12000
C441        C  0.94302028  0.79709652  0.18095515    -0.26000
C442        C  0.99084892  0.81868059  0.18638064     0.36500
C443        C  0.01487828  0.78901056  0.26135256     0.06100
F444        F  0.91761572  0.74444607  0.24850017    -0.19700
H445        H  0.88154766  0.75605948  0.19868067     0.15900
F446        F  0.01496671  0.84446312  0.16680580    -0.23500
H447        H  0.04970095  0.83352707  0.21607481     0.17700
C448        C  0.06830669  0.78022077  0.26417354     0.25700
C449        C  0.09244708  0.78361201  0.29002421    -0.12000
C450        C  0.06388768  0.79556202  0.31362811    -0.26000
C451        C  0.01001479  0.80312397  0.31081717     0.36600
C452        C  0.98612543  0.79998293  0.28498394    -0.27600
F453        F  0.09728485  0.76848363  0.24187756    -0.19800
H454        H  0.13369572  0.77735282  0.29148964     0.15900
F455        F  0.98030366  0.81517716  0.33279229    -0.23500
H456        H  0.94522454  0.80779061  0.28332967     0.17700
C457        C  0.14861075  0.75924018  0.96440910    -0.27500
C458        C  0.15031127  0.73885825  0.99082668     0.06100
C459        C  0.18981708  0.70698113  0.99663754     0.25700
C460        C  0.22761293  0.69720717  0.97690279    -0.12000
C461        C  0.22765435  0.71933568  0.95100173    -0.26000
C462        C  0.18699449  0.74989175  0.94470071     0.36500
C463        C  0.11178181  0.75152947  0.01242626     0.06100
F464        F  0.19382692  0.68719187  0.02198367    -0.19700
H465        H  0.25841046  0.67361683  0.98247046     0.15900
F466        F  0.18572259  0.77263893  0.92018439    -0.23500
H467        H  0.11798839  0.78320157  0.95917860     0.17700
C468        C  0.09907610  0.79793793  0.01754755     0.25700
C469        C  0.06198322  0.80923361  0.03749097    -0.12000
C470        C  0.03641517  0.77461524  0.05249795    -0.26000
C471        C  0.05024759  0.72839926  0.04807879     0.36600
C472        C  0.08753083  0.71707647  0.02826362    -0.27600
F473        F  0.12209230  0.83243104  0.00312108    -0.19800
H474        H  0.05119214  0.84503798  0.04011065     0.15900
F475        F  0.02662845  0.69409692  0.06239306    -0.23500
H476        H  0.09621538  0.68108704  0.02467549     0.17700
C477        C  0.64416124  0.76723992  0.03000220    -0.27500
C478        C  0.64796237  0.78365112  0.00270091     0.06100
C479        C  0.69088179  0.81060541  0.99530853     0.25700
C480        C  0.73039578  0.81879404  0.01438966    -0.12000
C481        C  0.72832187  0.80020386  0.04129416    -0.26000
C482        C  0.68383888  0.77540995  0.04919216     0.36500
C483        C  0.60879198  0.77059283  0.98160374     0.06100
F484        F  0.69627483  0.82662938  0.96909375    -0.19700
H485        H  0.76387444  0.83818069  0.00758141     0.15900
F486        F  0.67955693  0.75729983  0.07496170    -0.23500
H487        H  0.61090727  0.74705010  0.03626715     0.17700
C488        C  0.59613115  0.72405065  0.97720670     0.25700
C489        C  0.55951741  0.71182813  0.95719718    -0.12000
C490        C  0.53409575  0.74575022  0.94153913    -0.26000
C491        C  0.54737550  0.79226295  0.94557134     0.36600
C492        C  0.58472197  0.80444206  0.96525373    -0.27600
F493        F  0.61904818  0.69035054  0.99234939    -0.19800
H494        H  0.54903917  0.67589072  0.95497548     0.15900
F495        F  0.52343315  0.82596759  0.93088600    -0.23500
H496        H  0.59389206  0.84048644  0.96825681     0.17700
C497        C  0.81232178  0.02183404  0.12974001    -0.27500
C498        C  0.76080538  0.02632507  0.12070940     0.06100
C499        C  0.73163779  0.98652080  0.11559274     0.25700
C500        C  0.75404683  0.94318902  0.11843328    -0.12000
C501        C  0.80628545  0.93833905  0.12617189    -0.26000
C502        C  0.83509054  0.97820913  0.13240642     0.36500
C503        C  0.73773039  0.07226402  0.11569081     0.06100
F504        F  0.68143554  0.98952814  0.10748203    -0.19700
H505        H  0.73065564  0.91335243  0.11352044     0.15900
F506        F  0.88558535  0.97530830  0.13998322    -0.23500
H507        H  0.83547736  0.05219111  0.13374913     0.17700
C508        C  0.73828043  0.10626207  0.13625438     0.25700
C509        C  0.71512630  0.14898260  0.13135800    -0.12000
C510        C  0.69149001  0.15892862  0.10575707    -0.26000
C511        C  0.69095484  0.12472270  0.08520892     0.36600
C512        C  0.71385042  0.08188730  0.09021125    -0.27600
F513        F  0.76054388  0.09797068  0.16119762    -0.19800
H514        H  0.71671941  0.17469323  0.14753895     0.15900
F515        F  0.66856815  0.13257350  0.06026604    -0.23500
H516        H  0.71338973  0.05619437  0.07399475     0.17700
C517        C  0.81240158  0.59237075  0.12241281    -0.27500
C518        C  0.78101119  0.57320016  0.10176346     0.06100
C519        C  0.77487467  0.59697923  0.07660610     0.25700
C520        C  0.79881079  0.63978517  0.07258711    -0.12000
C521        C  0.82869959  0.65974303  0.09370177    -0.26000
C522        C  0.83599969  0.63511336  0.11852053     0.36500
C523        C  0.75492764  0.52850527  0.10685486     0.06100
F524        F  0.74558804  0.57894148  0.05598696    -0.19700
H525        H  0.79208981  0.65817751  0.05345379     0.15900
F526        F  0.86497581  0.65278676  0.13938992    -0.23500
H527        H  0.81756907  0.57471381  0.14193189     0.17700
C528        C  0.78360683  0.49013302  0.11574848     0.25700
C529        C  0.75916645  0.44789418  0.12017101    -0.12000
C530        C  0.70557189  0.44309831  0.11616603    -0.26000
C531        C  0.67652463  0.48179208  0.10795432     0.36600
C532        C  0.70115770  0.52407870  0.10325794    -0.27600
F533        F  0.83567175  0.49301408  0.11913055    -0.19800
H534        H  0.78244838  0.41853280  0.12617295     0.15900
F535        F  0.62494326  0.47823672  0.10302937    -0.23500
H536        H  0.67831235  0.55335130  0.09666895     0.17700
C537        C  0.99891861  0.24283852  0.78463338    -0.27500
C538        C  0.02519835  0.22961697  0.76051947     0.06100
C539        C  0.07700569  0.21464593  0.76284520     0.25700
C540        C  0.10058086  0.21063047  0.78887410    -0.12000
C541        C  0.07295016  0.22094346  0.81307836    -0.26000
C542        C  0.02217720  0.23833433  0.81059662     0.36500
C543        C  0.99740185  0.22879132  0.73345439     0.06100
F544        F  0.10397368  0.20129999  0.74016414    -0.19700
H545        H  0.13969991  0.19735069  0.79015427     0.15900
F546        F  0.99459205  0.25057024  0.83331030    -0.23500
H547        H  0.95968879  0.25588773  0.78343574     0.17700
C548        C  0.94766345  0.20901079  0.73122339     0.25700
C549        C  0.92333055  0.20511630  0.70546001    -0.12000
C550        C  0.94828151  0.22000099  0.68131888    -0.26000
C551        C  0.99714575  0.24130604  0.68359526     0.36600
C552        C  0.02112711  0.24589361  0.70941300    -0.27600
F553        F  0.92367330  0.19095135  0.75370644    -0.19800
H554        H  0.88597305  0.18828296  0.70424608     0.15900
F555        F  0.02198467  0.25742066  0.66082213    -0.23500
H556        H  0.05871818  0.26230941  0.71055166     0.17700
C557        C  0.07342023  0.03158219  0.98629630    -0.27500
C558        C  0.02365779  0.03873463  0.99720649     0.06100
C559        C  0.00144514  0.08295344  0.99557759     0.25700
C560        C  0.02766576  0.11857103  0.98223405    -0.12000
C561        C  0.07549218  0.11036836  0.96954121    -0.26000
C562        C  0.09896149  0.06698875  0.97224080     0.36500
C563        C  0.99479996  0.00015058  0.01001829     0.06100
F564        F  0.95292890  0.09103052  0.00520044    -0.19700
H565        H  0.00883404  0.15165579  0.98005567     0.15900
F566        F  0.14586805  0.05861718  0.96064824    -0.23500
H567        H  0.09191817  0.99826474  0.98805705     0.17700
C568        C  0.99060482  0.95696982  0.99693662     0.25700
C569        C  0.96351756  0.92089849  0.00965771    -0.12000
C570        C  0.93985952  0.92745820  0.03546804    -0.26000
C571        C  0.94302864  0.97134310  0.04805835     0.36600
C572        C  0.97059944  0.00680238  0.03555525    -0.27600
F573        F  0.01240497  0.94971753  0.97180511    -0.19800
H574        H  0.96217948  0.88760776  0.99964654     0.15900
F575        F  0.92108017  0.98001518  0.07302952    -0.23500
H576        H  0.97381626  0.03946184  0.04619579     0.17700
C577        C  0.20535188  0.42339568  0.85866354    -0.27500
C578        C  0.23209484  0.44639812  0.87976300     0.06100
C579        C  0.23234311  0.42755117  0.90653887     0.25700
C580        C  0.20808004  0.38539628  0.91177411    -0.12000
C581        C  0.18360913  0.36100423  0.89036434    -0.26000
C582        C  0.18159682  0.38091689  0.86377490     0.36500
C583        C  0.25947052  0.49009879  0.87382986     0.06100
F584        F  0.25635890  0.44981524  0.92760394    -0.19700
H585        H  0.21042587  0.37091681  0.93237987     0.15900
F586        F  0.15763062  0.35898049  0.84256565    -0.23500
H587        H  0.20420104  0.43775080  0.83799370     0.17700
C588        C  0.31276427  0.49467585  0.87915637     0.25700
C589        C  0.33732089  0.53722053  0.87551822    -0.12000
C590        C  0.30894284  0.57598421  0.86700930    -0.26000
C591        C  0.25613735  0.57077432  0.86047048     0.36600
C592        C  0.23186276  0.52804097  0.86360084    -0.27600
F593        F  0.34076125  0.45823443  0.88843904    -0.19800
H594        H  0.37785917  0.54045852  0.88090252     0.15900
F595        F  0.22761946  0.60733711  0.85184892    -0.23500
H596        H  0.19089777  0.52501747  0.85916101     0.17700
C597        C  0.30866625  0.92306689  0.86650720    -0.27500
C598        C  0.28376362  0.94555463  0.88839035     0.06100
C599        C  0.28260606  0.92428730  0.91453551     0.25700
C600        C  0.30472673  0.88065184  0.91843196    -0.12000
C601        C  0.32785649  0.85716522  0.89624312    -0.26000
C602        C  0.33026934  0.87931912  0.87024428     0.36500
C603        C  0.25756399  0.99036999  0.88356601     0.06100
F604        F  0.25968900  0.94561251  0.93627112    -0.19700
H605        H  0.30193862  0.86454026  0.93855176     0.15900
F606        F  0.35229285  0.85833933  0.84811239    -0.23500
H607        H  0.30990469  0.93880730  0.84622903     0.17700
C608        C  0.28495207  0.02850477  0.87319317     0.25700
C609        C  0.26019405  0.07112140  0.87002528    -0.12000
C610        C  0.20739978  0.07614130  0.87639288    -0.26000
C611        C  0.17954267  0.03742002  0.88566324     0.36600
C612        C  0.20459515  0.99511990  0.88940848    -0.27600
F613        F  0.33610878  0.02500803  0.86716945    -0.19800
H614        H  0.28249683  0.10044374  0.86299841     0.15900
F615        F  0.12879362  0.04097659  0.89259715    -0.23500
H616        H  0.18270153  0.96602944  0.89711424     0.17700
C617        C  0.39958638  0.29010412  0.02988742    -0.27500
C618        C  0.39683638  0.24724001  0.01667071     0.06100
C619        C  0.43157582  0.21232199  0.02456249     0.25700
C620        C  0.47016981  0.22117234  0.04420224    -0.12000
C621        C  0.47471775  0.26488804  0.05650349    -0.26000
C622        C  0.43762378  0.29885241  0.04978285     0.36500
C623        C  0.35809068  0.23957443  0.99447361     0.06100
F624        F  0.43010426  0.17047967  0.01211738    -0.19700
H625        H  0.49811688  0.19439587  0.04874833     0.15900
F626        F  0.43978545  0.34156417  0.06109472    -0.23500
H627        H  0.37263523  0.31722237  0.02440953     0.17700
C628        C  0.32248307  0.20320751  0.99637597     0.25700
C629        C  0.28438910  0.19764003  0.97617965    -0.12000
C630        C  0.28092659  0.22804938  0.95361564    -0.26000
C631        C  0.31727534  0.26389167  0.95127208     0.36600
C632        C  0.35539547  0.26963522  0.97165800    -0.27600
F633        F  0.32275038  0.17451921  0.01854396    -0.19800
H634        H  0.25632008  0.17020701  0.97865219     0.15900
F635        F  0.31391737  0.29500466  0.93037580    -0.23500
H636        H  0.38240109  0.29803785  0.96989765     0.17700
C637        C  0.86234047  0.25557204  0.02595152    -0.27500
C638        C  0.86040415  0.28003967  0.00086076     0.06100
C639        C  0.82083404  0.31230403  0.99661258     0.25700
C640        C  0.78266487  0.31855818  0.01661258    -0.12000
C641        C  0.78307821  0.29283545  0.04127506    -0.26000
C642        C  0.82420087  0.26211297  0.04618566     0.36500
C643        C  0.89813372  0.27029957  0.97863991     0.06100
F644        F  0.81732911  0.33579821  0.97241048    -0.19700
H645        H  0.75144927  0.34242706  0.01230020     0.15900
F646        F  0.82582686  0.23638273  0.06961681    -0.23500
H647        H  0.89282839  0.23066828  0.02957048     0.17700
C648        C  0.92950415  0.30538567  0.96772866     0.25700
C649        C  0.96678071  0.29514540  0.94771982    -0.12000
C650        C  0.97322158  0.24983536  0.93806153    -0.26000
C651        C  0.93919747  0.21534661  0.94773622     0.36600
C652        C  0.90255282  0.22554671  0.96807870    -0.27600
F653        F  0.92600167  0.34906195  0.97750163    -0.19800
H654        H  0.99234343  0.32236853  0.94076776     0.15900
F655        F  0.94314766  0.17115711  0.93885693    -0.23500
H656        H  0.87793634  0.19827053  0.97590607     0.17700
loop_ 
_geom_bond_atom_site_label_1 
_geom_bond_atom_site_label_2 
_geom_bond_distance 
_geom_bond_site_symmetry_2 
_ccdc_geom_bond_type 
O1          Cr19   2.011       .  S
O1            C9   1.267       .  A
O2          Cr19   1.966       .  S
O2            C3   1.257       .  A
C3            O4   1.268       .  A
C3          C561   1.466       .  S
O4          Cr20   2.023       .  S
O5          Cr20   1.955       .  S
O5            C6   1.256       .  A
C6            O7   1.272       .  A
C6          C630   1.479       .  S
O7          Cr21   2.040       .  S
O8          Cr21   1.975       .  S
O8            C9   1.259       .  A
C9          C610   1.481       .  S
O10         Cr19   1.966       .  S
O10          C18   1.260       .  A
O11         Cr19   2.020       .  S
O11          C12   1.268       .  A
C12          O13   1.259       .  A
C12         C650   1.484   1_455  S
O13         Cr20   1.970       .  S
O14         Cr20   2.024       .  S
O14          C15   1.270       .  A
C15          O16   1.258       .  A
C15         C581   1.482       .  S
O16         Cr21   1.968       .  S
O17         Cr21   2.036       .  S
O17          C18   1.274       .  A
C18         C541   1.487       .  S
Cr19         O22   1.762       .  S
Cr20         O22   1.761       .  S
Cr21         O22   1.768       .  S
O23         Cr41   1.956       .  S
O23          C31   1.257       .  A
O24         Cr41   2.039       .  S
O24          C25   1.273       .  A
C25          O26   1.257       .  A
C25         C481   1.489       .  S
O26         Cr42   1.961       .  S
O27         Cr42   2.050       .  S
O27          C28   1.274       .  A
C28          O29   1.249       .  A
C28         C570   1.482       .  S
O29         Cr43   1.938       .  S
O30         Cr43   2.019       .  S
O30          C31   1.268       .  A
C31         C501   1.482       .  S
O32         Cr41   2.040       .  S
O32          C40   1.274       .  A
O33         Cr41   1.956       .  S
O33          C34   1.258       .  A
C34          O35   1.274       .  A
C34         C521   1.481       .  S
O35         Cr42   2.039       .  S
O36         Cr42   1.965       .  S
O36          C37   1.257       .  A
C37          O38   1.270       .  A
C37         C470   1.477   1_655  S
O38         Cr43   2.032       .  S
O39         Cr43   1.951       .  S
O39          C40   1.256       .  A
C40         C441   1.481       .  S
Cr41         O44   1.761       .  S
Cr42         O44   1.759       .  S
Cr43         O44   1.755       .  S
O45         Cr63   1.963       .  S
O45          C53   1.258       .  A
O46         Cr63   2.039       .  S
O46          C47   1.272       .  A
C47          O48   1.256       .  A
C47         C461   1.485       .  S
O48         Cr64   1.958       .  S
O49         Cr64   2.058       .  S
O49          C50   1.275       .  A
C50          O51   1.251       .  A
C50         C430   1.487       .  S
O51         Cr65   1.941       .  S
O52         Cr65   2.020       .  S
O52          C53   1.270       .  A
C53         C590   1.478       .  S
O54         Cr63   2.037       .  S
O54          C62   1.274       .  A
O55         Cr63   1.959       .  S
O55          C56   1.258       .  A
C56          O57   1.276       .  A
C56         C601   1.488       .  S
O57         Cr64   2.045       .  S
O58         Cr64   1.963       .  S
O58          C59   1.256       .  A
C59          O60   1.271       .  A
C59         C490   1.478       .  S
O60         Cr65   2.035       .  S
O61         Cr65   1.963       .  S
O61          C62   1.259       .  A
C62         C410   1.491       .  S
Cr63         O66   1.764       .  S
Cr64         O66   1.760       .  S
Cr65         O66   1.756       .  S
O67         Cr85   2.015       .  S
O67          C75   1.267       .  A
O68         Cr85   1.954       .  S
O68          C69   1.254       .  A
C69          O70   1.271       .  A
C69         C421   1.471       .  S
O70         Cr86   2.035       .  S
O71         Cr86   1.957       .  S
O71          C72   1.256       .  A
C72          O73   1.270       .  A
C72         C641   1.479       .  S
O73         Cr87   2.033       .  S
O74         Cr87   1.962       .  S
O74          C75   1.256       .  A
C75         C530   1.478       .  S
O76         Cr85   1.962       .  S
O76          C84   1.259       .  A
O77         Cr85   2.018       .  S
O77          C78   1.268       .  A
C78          O79   1.260       .  A
C78         C621   1.488       .  S
O79         Cr86   1.975       .  S
O80         Cr86   2.032       .  S
O80          C81   1.273       .  A
C81          O82   1.258       .  A
C81         C510   1.483       .  S
O82         Cr87   1.957       .  S
O83         Cr87   2.035       .  S
O83          C84   1.273       .  A
C84         C390   1.481       .  S
Cr85         O88   1.758       .  S
Cr86         O88   1.762       .  S
Cr87         O88   1.769       .  S
O89        Cr107   2.021       .  S
O89          C97   1.269       .  A
O90        Cr107   1.955       .  S
O90          C91   1.252       .  A
C91          O92   1.271       .  A
C91         C330   1.465       .  S
O92        Cr108   2.032       .  S
O93        Cr108   1.962       .  S
O93          C94   1.255       .  A
C94          O95   1.271       .  A
C94         C341   1.478       .  S
O95        Cr109   2.036       .  S
O96        Cr109   1.961       .  S
O96          C97   1.257       .  A
C97         C281   1.487       .  S
O98        Cr107   1.965       .  S
O98         C106   1.258       .  A
O99        Cr107   2.027       .  S
O99         C100   1.270       .  A
C100        O101   1.260       .  A
C100        C361   1.485   1_655  S
O101       Cr108   1.968       .  S
O102       Cr108   2.043       .  S
O102        C103   1.275       .  A
C103        O104   1.259       .  A
C103        C310   1.492       .  S
O104       Cr109   1.963       .  S
O105       Cr109   2.035       .  S
O105        C106   1.274       .  A
C106        C550   1.483       .  S
Cr107       O110   1.762       .  S
Cr108       O110   1.759       .  S
Cr109       O110   1.762       .  S
O111       Cr129   1.969       .  S
O111        C119   1.258       .  A
O112       Cr129   2.043       .  S
O112        C113   1.273       .  A
C113        O114   1.255       .  A
C113        C221   1.481       .  S
O114       Cr130   1.954       .  S
O115       Cr130   2.043       .  S
O115        C116   1.271       .  A
C116        O117   1.249       .  A
C116        C321   1.479       .  S
O117       Cr131   1.938       .  S
O118       Cr131   2.025       .  S
O118        C119   1.270       .  A
C119        C241   1.492       .  S
O120       Cr129   2.042       .  S
O120        C128   1.276       .  A
O121       Cr129   1.970       .  S
O121        C122   1.260       .  A
C122        O123   1.273       .  A
C122        C261   1.485       .  S
O123       Cr130   2.034       .  S
O124       Cr130   1.964       .  S
O124        C125   1.259       .  A
C125        O126   1.273       .  A
C125        C210   1.488   1_455  S
O126       Cr131   2.036       .  S
O127       Cr131   1.951       .  S
O127        C128   1.256       .  A
C128        C450   1.488       .  S
Cr129       O132   1.764       .  S
Cr130       O132   1.760       .  S
Cr131       O132   1.756       .  S
O133       Cr151   1.975       .  S
O133        C141   1.258       .  A
O134       Cr151   2.040       .  S
O134        C135   1.273       .  A
C135        O136   1.255       .  A
C135        C201   1.476       .  S
O136       Cr152   1.956       .  S
O137       Cr152   2.040       .  S
O137        C138   1.269       .  A
C138        O139   1.251       .  A
C138        C181   1.478       .  S
O139       Cr153   1.943       .  S
O140       Cr153   2.018       .  S
O140        C141   1.269       .  A
C141        C301   1.488       .  S
O142       Cr151   2.039       .  S
O142        C150   1.275       .  A
O143       Cr151   1.965       .  S
O143        C144   1.259       .  A
C144        O145   1.273       .  A
C144        C290   1.483       .  S
O145       Cr152   2.034       .  S
O146       Cr152   1.967       .  S
O146        C147   1.260       .  A
C147        O148   1.272       .  A
C147        C230   1.487       .  S
O148       Cr153   2.035       .  S
O149       Cr153   1.959       .  S
O149        C150   1.259       .  A
C150        C401   1.483       .  S
Cr151       O154   1.766       .  S
Cr152       O154   1.764       .  S
Cr153       O154   1.758       .  S
O155       Cr173   2.021       .  S
O155        C163   1.270       .  A
O156       Cr173   1.957       .  S
O156        C157   1.252       .  A
C157        O158   1.270       .  A
C157        C190   1.467       .  S
O158       Cr174   2.034       .  S
O159       Cr174   1.958       .  S
O159        C160   1.256       .  A
C160        O161   1.272       .  A
C160        C370   1.476       .  S
O161       Cr175   2.035       .  S
O162       Cr175   1.970       .  S
O162        C163   1.259       .  A
C163        C270   1.488       .  S
O164       Cr173   1.962       .  S
O164        C172   1.258       .  A
O165       Cr173   2.034       .  S
O165        C166   1.273       .  A
C166        O167   1.258       .  A
C166        C350   1.488       .  S
O167       Cr174   1.965       .  S
O168       Cr174   2.035       .  S
O168        C169   1.273       .  A
C169        O170   1.261       .  A
C169        C250   1.484       .  S
O170       Cr175   1.974       .  S
O171       Cr175   2.035       .  S
O171        C172   1.273       .  A
C172        C381   1.487       .  S
Cr173       O176   1.760       .  S
Cr174       O176   1.760       .  S
Cr175       O176   1.765       .  S
C177        C178   1.411       .  A
C177        C182   1.403       .  A
C177        H187   1.083       .  S
C178        C183   1.487       .  S
C178        C179   1.405       .  A
C179        C180   1.387       .  A
C179        F184   1.358       .  S
C180        C181   1.406       .  A
C180        H185   1.084       .  S
C181        C182   1.406       .  A
C182        F186   1.357       .  S
C183        C188   1.410       .  A
C183        C192   1.407       .  A
C188        C189   1.399       .  A
C188        F193   1.357       .  S
C189        C190   1.404       .  A
C189        H194   1.084       .  S
C190        C191   1.401       .  A
C191        C192   1.393       .  A
C191        F195   1.356       .  S
C192        H196   1.083       .  S
C197        C198   1.405       .  A
C197        C202   1.399       .  A
C197        H207   1.076       .  S
C198        C203   1.488       .  S
C198        C199   1.409       .  A
C199        C200   1.403       .  A
C199        F204   1.358       .  S
C200        C201   1.404       .  A
C200        H205   1.077       .  S
C201        C202   1.407       .  A
C202        F206   1.358       .  S
C203        C208   1.405       .  A
C203        C212   1.406       .  A
C208        C209   1.399       .  A
C208        F213   1.358       .  S
C209        C210   1.409       .  A
C209        H214   1.079   1_655  S
C210        C211   1.409       .  A
C211        C212   1.402       .  A
C211        F215   1.357       .  S
C212        H216   1.079       .  S
C217        C218   1.403       .  A
C217        C222   1.396       .  A
C217        H227   1.083       .  S
C218        C223   1.491       .  S
C218        C219   1.411       .  A
C219        C220   1.403       .  A
C219        F224   1.357       .  S
C220        C221   1.404       .  A
C220        H225   1.084       .  S
C221        C222   1.409       .  A
C222        F226   1.358       .  S
C223        C228   1.408       .  A
C223        C232   1.406       .  A
C228        C229   1.399       .  A
C228        F233   1.357       .  S
C229        C230   1.406       .  A
C229        H234   1.083       .  S
C230        C231   1.411       .  A
C231        C232   1.402       .  A
C231        F235   1.358       .  S
C232        H236   1.083       .  S
C237        C238   1.402   1_565  A
C237        C242   1.401       .  A
C237        H247   1.083       .  S
C238        C243   1.490       .  S
C238        C239   1.409       .  A
C239        C240   1.404   1_545  A
C239        F244   1.357       .  S
C240        C241   1.407       .  A
C240        H245   1.083       .  S
C241        C242   1.413       .  A
C242        F246   1.357       .  S
C243        C248   1.408       .  A
C243        C252   1.405       .  A
C248        C249   1.402       .  A
C248        F253   1.357       .  S
C249        C250   1.405       .  A
C249        H254   1.084       .  S
C250        C251   1.409       .  A
C251        C252   1.403       .  A
C251        F255   1.357       .  S
C252        H256   1.084       .  S
C257        C258   1.405       .  A
C257        C262   1.401       .  A
C257        H267   1.083       .  S
C258        C263   1.488       .  S
C258        C259   1.407       .  A
C259        C260   1.401       .  A
C259        F264   1.357       .  S
C260        C261   1.406       .  A
C260        H265   1.083       .  S
C261        C262   1.409       .  A
C262        F266   1.358       .  S
C263        C268   1.405       .  A
C263        C272   1.406       .  A
C268        C269   1.399       .  A
C268        F273   1.357       .  S
C269        C270   1.408       .  A
C269        H274   1.083       .  S
C270        C271   1.410       .  A
C271        C272   1.404       .  A
C271        F275   1.357       .  S
C272        H276   1.083       .  S
C277        C278   1.405       .  A
C277        C282   1.406   1_565  A
C277        H287   1.080       .  S
C278        C283   1.477       .  S
C278        C279   1.398   1_565  A
C279        C280   1.394       .  A
C279        F284   1.358       .  S
C280        C281   1.410       .  A
C280        H285   1.080       .  S
C281        C282   1.411       .  A
C282        F286   1.357       .  S
C283        C288   1.403       .  A
C283        C292   1.402       .  A
C288        C289   1.402       .  A
C288        F293   1.358       .  S
C289        C290   1.408       .  A
C289        H294   1.078       .  S
C290        C291   1.410       .  A
C291        C292   1.400       .  A
C291        F295   1.358       .  S
C292        H296   1.078       .  S
C297        C298   1.403       .  A
C297        C302   1.402       .  A
C297        H307   1.084       .  S
C298        C303   1.486       .  S
C298        C299   1.406       .  A
C299        C300   1.403       .  A
C299        F304   1.357       .  S
C300        C301   1.407       .  A
C300        H305   1.084       .  S
C301        C302   1.411       .  A
C302        F306   1.357       .  S
C303        C308   1.407       .  A
C303        C312   1.401       .  A
C308        C309   1.404       .  A
C308        F313   1.357       .  S
C309        C310   1.408       .  A
C309        H314   1.083       .  S
C310        C311   1.414       .  A
C311        C312   1.400       .  A
C311        F315   1.358       .  S
C312        H316   1.084       .  S
C317        C318   1.399       .  A
C317        C322   1.386       .  A
C317        H327   1.082   1_565  S
C318        C323   1.484   1_565  S
C318        C319   1.412       .  A
C319        C320   1.403       .  A
C319        F324   1.357       .  S
C320        C321   1.404       .  A
C320        H325   1.083       .  S
C321        C322   1.413       .  A
C322        F326   1.358       .  S
C323        C328   1.411       .  A
C323        C332   1.406   1_455  A
C328        C329   1.394   1_455  A
C328        F333   1.358       .  S
C329        C330   1.399       .  A
C329        H334   1.083   1_655  S
C330        C331   1.405       .  A
C331        C332   1.397       .  A
C331        F335   1.358       .  S
C332        H336   1.082   1_545  S
C337        C338   1.403       .  A
C337        C342   1.399       .  A
C337        H347   1.083       .  S
C338        C343   1.485       .  S
C338        C339   1.409       .  A
C339        C340   1.401       .  A
C339        F344   1.357       .  S
C340        C341   1.403       .  A
C340        H345   1.083       .  S
C341        C342   1.409       .  A
C342        F346   1.358       .  S
C343        C348   1.406       .  A
C343        C352   1.403       .  A
C348        C349   1.400       .  A
C348        F353   1.357       .  S
C349        C350   1.407       .  A
C349        H354   1.082       .  S
C350        C351   1.412       .  A
C351        C352   1.400       .  A
C351        F355   1.358       .  S
C352        H356   1.083       .  S
C357        C358   1.404       .  A
C357        C362   1.398       .  A
C357        H367   1.083       .  S
C358        C363   1.485       .  S
C358        C359   1.407       .  A
C359        C360   1.400       .  A
C359        F364   1.358       .  S
C360        C361   1.408       .  A
C360        H365   1.083       .  S
C361        C362   1.409       .  A
C362        F366   1.357       .  S
C363        C368   1.410       .  A
C363        C372   1.403       .  A
C368        C369   1.401       .  A
C368        F373   1.357       .  S
C369        C370   1.404       .  A
C369        H374   1.083       .  S
C370        C371   1.407       .  A
C371        C372   1.396       .  A
C371        F375   1.358       .  S
C372        H376   1.083       .  S
C377        C378   1.410       .  A
C377        C382   1.402       .  A
C377        H387   1.082       .  S
C378        C383   1.495       .  S
C378        C379   1.408       .  A
C379        C380   1.398       .  A
C379        F384   1.357       .  S
C380        C381   1.408       .  A
C380        H385   1.083       .  S
C381        C382   1.407       .  A
C382        F386   1.357       .  S
C383        C388   1.408       .  A
C383        C392   1.410       .  A
C388        C389   1.398       .  A
C388        F393   1.357       .  S
C389        C390   1.406       .  A
C389        H394   1.083       .  S
C390        C391   1.405       .  A
C391        C392   1.402       .  A
C391        F395   1.357       .  S
C392        H396   1.082       .  S
C397        C398   1.411       .  A
C397        C402   1.405       .  A
C397        H407   1.083       .  S
C398        C403   1.495       .  S
C398        C399   1.408       .  A
C399        C400   1.397       .  A
C399        F404   1.358       .  S
C400        C401   1.405       .  A
C400        H405   1.083       .  S
C401        C402   1.405       .  A
C402        F406   1.357       .  S
C403        C408   1.407       .  A
C403        C412   1.409       .  A
C408        C409   1.398       .  A
C408        F413   1.357       .  S
C409        C410   1.409       .  A
C409        H414   1.083       .  S
C410        C411   1.409       .  A
C411        C412   1.403       .  A
C411        F415   1.357       .  S
C412        H416   1.083       .  S
C417        C418   1.408       .  A
C417        C422   1.398   1_556  A
C417        H427   1.083       .  S
C418        C423   1.485       .  S
C418        C419   1.405   1_556  A
C419        C420   1.396       .  A
C419        F424   1.357       .  S
C420        C421   1.405       .  A
C420        H425   1.084       .  S
C421        C422   1.404       .  A
C422        F426   1.358       .  S
C423        C428   1.401       .  A
C423        C432   1.411   1_556  A
C428        C429   1.390       .  A
C428        F433   1.358       .  S
C429        C430   1.411       .  A
C429        H434   1.083       .  S
C430        C431   1.406       .  A
C431        C432   1.406   1_556  A
C431        F435   1.357   1_556  S
C432        H436   1.083       .  S
C437        C438   1.401   1_455  A
C437        C442   1.392   1_455  A
C437        H447   1.084       .  S
C438        C443   1.487   1_655  S
C438        C439   1.412       .  A
C439        C440   1.404       .  A
C439        F444   1.357       .  S
C440        C441   1.404       .  A
C440        H445   1.084       .  S
C441        C442   1.410       .  A
C442        F446   1.358   1_655  S
C443        C448   1.410       .  A
C443        C452   1.401   1_455  A
C448        C449   1.401       .  A
C448        F453   1.357       .  S
C449        C450   1.404       .  A
C449        H454   1.083       .  S
C450        C451   1.415       .  A
C451        C452   1.397   1_455  A
C451        F455   1.358   1_455  S
C452        H456   1.084       .  S
C457        C458   1.408       .  A
C457        C462   1.403       .  A
C457        H467   1.083       .  S
C458        C463   1.490   1_556  S
C458        C459   1.406       .  A
C459        C460   1.395       .  A
C459        F464   1.357   1_556  S
C460        C461   1.408       .  A
C460        H465   1.084       .  S
C461        C462   1.408       .  A
C462        F466   1.357       .  S
C463        C468   1.409       .  A
C463        C472   1.407       .  A
C468        C469   1.400       .  A
C468        F473   1.357       .  S
C469        C470   1.405       .  A
C469        H474   1.084       .  S
C470        C471   1.406       .  A
C471        C472   1.399       .  A
C471        F475   1.358       .  S
C472        H476   1.083       .  S
C477        C478   1.407       .  A
C477        C482   1.403       .  A
C477        H487   1.083       .  S
C478        C483   1.487   1_554  S
C478        C479   1.403   1_554  A
C479        C480   1.397   1_556  A
C479        F484   1.358       .  S
C480        C481   1.410       .  A
C480        H485   1.083       .  S
C481        C482   1.409       .  A
C482        F486   1.357       .  S
C483        C488   1.407       .  A
C483        C492   1.406       .  A
C488        C489   1.399       .  A
C488        F493   1.357       .  S
C489        C490   1.405       .  A
C489        H494   1.084       .  S
C490        C491   1.407       .  A
C491        C492   1.401       .  A
C491        F495   1.358       .  S
C492        H496   1.083       .  S
C497        C498   1.407       .  A
C497        C502   1.403   1_545  A
C497        H507   1.083       .  S
C498        C503   1.481       .  S
C498        C499   1.402   1_545  A
C499        C500   1.392       .  A
C499        F504   1.358       .  S
C500        C501   1.407       .  A
C500        H505   1.083       .  S
C501        C502   1.409       .  A
C502        F506   1.357       .  S
C503        C508   1.403       .  A
C503        C512   1.406       .  A
C508        C509   1.397       .  A
C508        F513   1.358       .  S
C509        C510   1.410       .  A
C509        H514   1.083       .  S
C510        C511   1.406       .  A
C511        C512   1.398       .  A
C511        F515   1.357       .  S
C512        H516   1.083       .  S
C517        C518   1.402       .  A
C517        C522   1.395       .  A
C517        H527   1.082       .  S
C518        C523   1.483       .  S
C518        C519   1.407       .  A
C519        C520   1.402       .  A
C519        F524   1.357       .  S
C520        C521   1.406       .  A
C520        H525   1.082       .  S
C521        C522   1.409       .  A
C522        F526   1.358       .  S
C523        C528   1.405       .  A
C523        C532   1.406       .  A
C528        C529   1.396       .  A
C528        F533   1.358       .  S
C529        C530   1.405       .  A
C529        H534   1.083       .  S
C530        C531   1.408       .  A
C531        C532   1.401       .  A
C531        F535   1.358       .  S
C532        H536   1.082       .  S
C537        C538   1.404   1_655  A
C537        C542   1.398   1_655  A
C537        H547   1.084       .  S
C538        C543   1.493   1_455  S
C538        C539   1.412       .  A
C539        C540   1.403       .  A
C539        F544   1.357       .  S
C540        C541   1.404       .  A
C540        H545   1.083       .  S
C541        C542   1.411       .  A
C542        F546   1.358   1_455  S
C543        C548   1.412       .  A
C543        C552   1.405   1_655  A
C548        C549   1.400       .  A
C548        F553   1.357       .  S
C549        C550   1.402       .  A
C549        H554   1.083       .  S
C550        C551   1.410       .  A
C551        C552   1.401   1_655  A
C551        F555   1.358   1_655  S
C552        H556   1.083       .  S
C557        C558   1.406       .  A
C557        C562   1.398       .  A
C557        H567   1.082   1_545  S
C558        C563   1.481   1_456  S
C558        C559   1.409       .  A
C559        C560   1.394       .  A
C559        F564   1.358   1_456  S
C560        C561   1.401       .  A
C560        H565   1.082       .  S
C561        C562   1.404       .  A
C562        F566   1.358       .  S
C563        C568   1.410   1_544  A
C563        C572   1.399       .  A
C568        C569   1.402   1_556  A
C568        F573   1.357   1_655  S
C569        C570   1.404       .  A
C569        H574   1.082   1_554  S
C570        C571   1.416       .  A
C571        C572   1.390   1_565  A
C571        F575   1.359       .  S
C572        H576   1.083       .  S
C577        C578   1.402       .  A
C577        C582   1.400       .  A
C577        H587   1.083       .  S
C578        C583   1.481       .  S
C578        C579   1.406       .  A
C579        C580   1.398       .  A
C579        F584   1.357       .  S
C580        C581   1.406       .  A
C580        H585   1.083       .  S
C581        C582   1.411       .  A
C582        F586   1.358       .  S
C583        C588   1.407       .  A
C583        C592   1.402       .  A
C588        C589   1.400       .  A
C588        F593   1.358       .  S
C589        C590   1.404       .  A
C589        H594   1.083       .  S
C590        C591   1.408       .  A
C591        C592   1.399       .  A
C591        F595   1.357       .  S
C592        H596   1.083       .  S
C597        C598   1.401       .  A
C597        C602   1.399       .  A
C597        H607   1.082       .  S
C598        C603   1.485       .  S
C598        C599   1.407       .  A
C599        C600   1.403       .  A
C599        F604   1.357       .  S
C600        C601   1.406       .  A
C600        H605   1.082       .  S
C601        C602   1.413       .  A
C602        F606   1.358       .  S
C603        C608   1.406   1_565  A
C603        C612   1.404       .  A
C608        C609   1.401       .  A
C608        F613   1.357       .  S
C609        C610   1.406       .  A
C609        H614   1.083       .  S
C610        C611   1.408       .  A
C611        C612   1.400   1_545  A
C611        F615   1.357       .  S
C612        H616   1.083       .  S
C617        C618   1.402       .  A
C617        C622   1.399       .  A
C617        H627   1.084       .  S
C618        C623   1.485   1_554  S
C618        C619   1.406       .  A
C619        C620   1.401       .  A
C619        F624   1.357       .  S
C620        C621   1.408       .  A
C620        H625   1.083       .  S
C621        C622   1.413       .  A
C622        F626   1.358       .  S
C623        C628   1.404       .  A
C623        C632   1.408       .  A
C628        C629   1.396       .  A
C628        F633   1.357   1_556  S
C629        C630   1.406       .  A
C629        H634   1.084       .  S
C630        C631   1.406       .  A
C631        C632   1.404       .  A
C631        F635   1.358       .  S
C632        H636   1.084       .  S
C637        C638   1.407       .  A
C637        C642   1.402       .  A
C637        H647   1.083       .  S
C638        C643   1.479   1_554  S
C638        C639   1.402   1_554  A
C639        C640   1.394   1_556  A
C639        F644   1.357       .  S
C640        C641   1.407       .  A
C640        H645   1.083       .  S
C641        C642   1.407       .  A
C642        F646   1.358       .  S
C643        C648   1.405       .  A
C643        C652   1.402       .  A
C648        C649   1.398       .  A
C648        F653   1.357       .  S
C649        C650   1.407       .  A
C649        H654   1.083       .  S
C650        C651   1.412       .  A
C651        C652   1.398       .  A
C651        F655   1.358       .  S
C652        H656   1.084       .  S
