geometry optimzed in LAMMPS
_audit_creation_date              2020-12-01 
_audit_creation_method            'lammps2cif' 
_symmetry_space_group_name_H-M    'P1' 
_symmetry_Int_Tables_number       1 
_symmetry_cell_setting            triclinic 
loop_ 
_symmetry_equiv_pos_as_xyz 
  x,y,z 
_cell_length_a                    56.31176095 
_cell_length_b                    46.293497638446254 
_cell_length_c                    26.939894938211015 
_cell_angle_alpha                 90.01257302809368 
_cell_angle_beta                  89.6089077180716 
_cell_angle_gamma                 90.24735017667514 
loop_ 
_atom_site_label 
_atom_site_type_symbol 
_atom_site_fract_x 
_atom_site_fract_y 
_atom_site_fract_z 
_atom_site_charge 
O1          O  0.41317644  0.81657270  0.61139635    -0.81600
C2          C  0.33141912  0.87574726  0.65982970     0.97700
O3          O  0.34947091  0.86635112  0.68215599    -0.70800
O4          O  0.38614976  0.83186515  0.69847238    -0.74300
Al5        Al  0.38047636  0.86392562  0.65374128     1.49000
C6          C  0.37948316  0.80573705  0.69768951     0.93000
O7          O  0.35093331  0.79128898  0.57153511    -0.80600
O8          O  0.35909066  0.83851538  0.50329732    -0.74100
Al9        Al  0.38090903  0.80725734  0.59296349     1.90100
O10         O  0.32658988  0.82817775  0.57624960    -0.73200
O11         O  0.36836176  0.88924667  0.54479260    -0.73000
O12         O  0.33195348  0.87949300  0.61327774    -0.78700
O13         O  0.37753498  0.90132434  0.62096096    -0.76900
O14         O  0.37002727  0.84285468  0.60294064    -1.13000
O15         O  0.41207161  0.86295519  0.62977807    -0.72200
C16         C  0.42363825  0.84054123  0.61859273     0.98500
C17         C  0.33015897  0.80159824  0.57019190     0.94900
Al18       Al  0.34845190  0.85775911  0.56268774     1.55600
O19         O  0.37249874  0.79455310  0.65779504    -0.76900
C20         C  0.37552664  0.90785951  0.57545244     0.99000
C21         C  0.37668770  0.82277653  0.49293847     0.93900
O22         O  0.39050982  0.81463447  0.52664646    -0.82200
O23         O  0.63143962  0.80887382  0.52159951    -0.81600
C24         C  0.68692013  0.87908503  0.64572021     0.97700
O25         O  0.68823544  0.87943839  0.59870866    -0.70800
O26         O  0.69497278  0.82671557  0.57230199    -0.74300
Al27       Al  0.67311839  0.85415675  0.55082037     1.49000
C28         C  0.69217131  0.80000443  0.56760959     0.93000
O29         O  0.64984743  0.79657626  0.65335379    -0.80600
O30         O  0.60710753  0.85944885  0.61229560    -0.74100
Al31       Al  0.64114817  0.80465202  0.58756005     1.90100
O32         O  0.63329722  0.83452450  0.68766532    -0.73200
O33         O  0.64010079  0.89935791  0.59713719    -0.73000
O34         O  0.66803007  0.87117420  0.66717951    -0.78700
O35         O  0.65350313  0.88345506  0.52554925    -0.76900
O36         O  0.65072517  0.84113131  0.59180525    -1.13000
O37         O  0.66353375  0.83057202  0.49382579    -0.72200
C38         C  0.64534667  0.81486724  0.48638517     0.98500
C39         C  0.64136157  0.80904497  0.69097567     0.94900
Al40       Al  0.63816903  0.86440490  0.63742515     1.55600
O41         O  0.67159099  0.78893538  0.56731955    -0.76900
C42         C  0.64371479  0.90293225  0.55095782     0.99000
C43         C  0.59679993  0.83540144  0.60698606     0.93900
O44         O  0.60858266  0.81218788  0.60551605    -0.82200
O45         O  0.60429100  0.68907029  0.10421471    -0.81600
C46         C  0.68630820  0.62837069  0.13962328     0.97700
O47         O  0.66883705  0.63800507  0.16395616    -0.70800
O48         O  0.63361829  0.67333365  0.18625345    -0.74300
Al49       Al  0.63741421  0.64106246  0.14051100     1.49000
C50         C  0.64159221  0.69889390  0.18368859     0.93000
O51         O  0.66549805  0.71313578  0.05374789    -0.80600
O52         O  0.65466976  0.66634437  0.98728231    -0.74100
Al53       Al  0.63610307  0.69763291  0.08007884     1.90100
O54         O  0.68950682  0.67588935  0.05477367    -0.73200
O55         O  0.64624713  0.61533400  0.02993458    -0.73000
O56         O  0.68487386  0.62471504  0.09307880    -0.78700
O57         O  0.63888442  0.60374763  0.10743294    -0.76900
O58         O  0.64672643  0.66183917  0.08814070    -1.13000
O59         O  0.60536651  0.64259731  0.12154216    -0.72200
C60         C  0.59376761  0.66524215  0.11278621     0.98500
C61         C  0.68610480  0.70255774  0.04963762     0.94900
Al62       Al  0.66696935  0.64662837  0.04472173     1.55600
O63         O  0.64718792  0.70962690  0.14249806    -0.76900
C64         C  0.63947296  0.59707151  0.06179464     0.99000
C65         C  0.63718944  0.68285285  0.98008906     0.93900
O66         O  0.62423329  0.69062815  0.01585214    -0.82200
O67         O  0.38621311  0.69364519  0.02896927    -0.81600
C68         C  0.33009707  0.62845745  0.16144037     0.97700
O69         O  0.33065112  0.62412001  0.11491023    -0.70800
O70         O  0.32318675  0.67412162  0.07671233    -0.74300
Al71       Al  0.34640070  0.64655904  0.06351962     1.49000
C72         C  0.32525975  0.70093977  0.07178948     0.93000
O73         O  0.36680137  0.71077091  0.16023760    -0.80600
O74         O  0.41019013  0.64605614  0.12913262    -0.74100
Al75       Al  0.37601251  0.69957964  0.09503021     1.90100
O76         O  0.38378291  0.67492644  0.19873871    -0.73200
O77         O  0.37673597  0.60513709  0.12247555    -0.73000
O78         O  0.34806865  0.63856599  0.18344115    -0.78700
O79         O  0.36761241  0.61646641  0.04610259    -0.76900
O80         O  0.36713254  0.66307118  0.10395309    -1.13000
O81         O  0.35667195  0.66666756  0.00368319    -0.72200
C82         C  0.37348806  0.68413405  0.99436130     0.98500
C83         C  0.37555078  0.70026159  0.19906627     0.94900
Al84       Al  0.37876615  0.64273692  0.15436860     1.55600
O85         O  0.34538470  0.71315652  0.07342779    -0.76900
C86         C  0.37485991  0.59824028  0.07718383     0.99000
C87         C  0.42039968  0.66983721  0.11940315     0.93900
O88         O  0.40855416  0.69285348  0.11360359    -0.82200
O89         O  0.10817632  0.81181159  0.89463966    -0.81600
C90         C  0.18630464  0.87950267  0.85962767     0.97700
O91         O  0.16837591  0.87088070  0.83582857    -0.70800
O92         O  0.13415051  0.83366754  0.81420241    -0.74300
Al93       Al  0.13751950  0.86438393  0.86321737     1.49000
C94         C  0.14360439  0.80887846  0.81290839     0.93000
O95         O  0.17074902  0.79122638  0.93845976    -0.80600
O96         O  0.16006129  0.83315599  0.00942705    -0.74100
Al97       Al  0.14041567  0.80554773  0.91584012     1.90100
O98         O  0.19326912  0.82989250  0.93446067    -0.73200
O99         O  0.14873668  0.88508209  0.97574739    -0.73000
O100        O  0.18530280  0.88208045  0.90637048    -0.78700
O101        O  0.13826273  0.90011412  0.90177737    -0.76900
O102        O  0.14916052  0.84219667  0.91102383    -1.13000
O103        O  0.10578959  0.85900912  0.88627885    -0.72200
C104        C  0.09589012  0.83458958  0.89138485     0.98500
C105        C  0.19106879  0.80302079  0.93841970     0.94900
Al106      Al  0.17003410  0.85656340  0.95329352     1.55600
O107        O  0.15126567  0.79733260  0.85172515    -0.76900
C108        C  0.14029942  0.90439757  0.94815638     0.99000
C109        C  0.14230499  0.81671798  0.01644798     0.93900
O110        O  0.12894411  0.81004228  0.98101924    -0.82200
O111        O  0.88630612  0.81232841  0.97171536    -0.81600
C112        C  0.83276141  0.87801393  0.83729079     0.97700
O113        O  0.83072143  0.87990415  0.88416050    -0.70800
O114        O  0.82340022  0.82788185  0.91731367    -0.74300
Al115      Al  0.84524593  0.85649754  0.93571367     1.49000
C116        C  0.82646608  0.80128596  0.92376104     0.93000
O117        O  0.87023016  0.79593655  0.83963243    -0.80600
O118        O  0.91151783  0.86121998  0.87839680    -0.74100
Al119      Al  0.87789330  0.80623161  0.90521101     1.90100
O120        O  0.88725065  0.83303425  0.80333326    -0.73200
O121        O  0.87820800  0.90077516  0.88626043    -0.73000
O122        O  0.85181787  0.86917985  0.81789686    -0.78700
O123        O  0.86479048  0.88662065  0.95880406    -0.76900
O124        O  0.86808015  0.84230997  0.89716369    -1.13000
O125        O  0.85414564  0.83534603  0.99500090    -0.72200
C126        C  0.87184143  0.81965561  0.00516540     0.98500
C127        C  0.87895255  0.80754546  0.80144183     0.94900
Al128      Al  0.88114150  0.86434776  0.85022478     1.55600
O129        O  0.84716852  0.79072093  0.92417623    -0.76900
C130        C  0.87457843  0.90551627  0.93206444     0.99000
C131        C  0.92232014  0.83791496  0.88635051     0.93900
O132        O  0.91104752  0.81414704  0.88891272    -0.82200
O133        O  0.91062937  0.69050565  0.38659077    -0.81600
C134        C  0.82946636  0.62887140  0.34104834     0.97700
O135        O  0.84788604  0.63749388  0.31854328    -0.70800
O136        O  0.88417821  0.67227035  0.30060528    -0.74300
Al137      Al  0.87847260  0.64140494  0.34775255     1.49000
C138        C  0.87721478  0.69821377  0.29991029     0.93000
O139        O  0.84774447  0.71582665  0.42388007    -0.80600
O140        O  0.85429105  0.67177231  0.49463515    -0.74100
Al141      Al  0.87811021  0.69962399  0.40427394     1.90100
O142        O  0.82353706  0.67869089  0.41717257    -0.73200
O143        O  0.86457449  0.62001007  0.45886896    -0.73000
O144        O  0.82951380  0.62615236  0.38777020    -0.78700
O145        O  0.87537596  0.60526527  0.38457254    -0.76900
O146        O  0.86734937  0.66378301  0.39631912    -1.13000
O147        O  0.90986548  0.64372100  0.37179010    -0.72200
C148        C  0.92130806  0.66667892  0.38033606     0.98500
C149        C  0.82692875  0.70535478  0.42210906     0.94900
Al150      Al  0.84493547  0.65014822  0.43646489     1.55600
O151        O  0.87028881  0.71035717  0.33908557    -0.76900
C152        C  0.87269394  0.60061369  0.43075395     0.99000
C153        C  0.87235121  0.68691817  0.50479348     0.93900
O154        O  0.88698036  0.69363374  0.47113220    -0.82200
O155        O  0.12572450  0.69696898  0.48230629    -0.81600
C156        C  0.18602903  0.62889560  0.36409831     0.97700
O157        O  0.18474636  0.62711035  0.41093337    -0.70800
O158        O  0.19143252  0.67926078  0.44251173    -0.74300
Al159      Al  0.16796534  0.65159295  0.45721076     1.49000
C160        C  0.18867702  0.70600887  0.44765272     0.93000
O161        O  0.15109811  0.71158308  0.35534133    -0.80600
O162        O  0.10511738  0.64887797  0.38364837    -0.74100
Al163      Al  0.13874425  0.70243858  0.41833314     1.90100
O164        O  0.13534236  0.67493050  0.31551097    -0.73200
O165        O  0.13698771  0.60805857  0.40167592    -0.73000
O166        O  0.16848110  0.63753614  0.33942033    -0.78700
O167        O  0.14652400  0.62235046  0.47660236    -0.76900
O168        O  0.14791582  0.66596127  0.41331182    -1.13000
O169        O  0.15621299  0.67374594  0.51273463    -0.72200
C170        C  0.13815461  0.68960401  0.51876726     0.98500
C171        C  0.14472558  0.69986731  0.31549924     0.94900
Al172      Al  0.13730227  0.64395488  0.36397893     1.55600
O173        O  0.16825306  0.71712185  0.44480884    -0.76900
C174        C  0.13821320  0.60342686  0.44801395     0.99000
C175        C  0.09499126  0.67304278  0.38830111     0.93900
O176        O  0.10708295  0.69595475  0.39355620    -0.82200
O177        O  0.59549866  0.31074709  0.87911938    -0.81600
C178        C  0.67670832  0.37294868  0.83734665     0.97700
O179        O  0.65863597  0.36346164  0.81533292    -0.70800
O180        O  0.62370561  0.32694513  0.79725750    -0.74300
Al181      Al  0.62789219  0.35958542  0.84241289     1.49000
C182        C  0.63176405  0.30143082  0.79965853     0.93000
O183        O  0.65695495  0.28752072  0.92866704    -0.80600
O184        O  0.64764780  0.33332892  0.99355524    -0.74100
Al185      Al  0.62742024  0.30309100  0.90270261     1.90100
O186        O  0.68111994  0.32445260  0.92022654    -0.73200
O187        O  0.63962216  0.38484635  0.95218624    -0.73000
O188        O  0.67666349  0.37567675  0.88424377    -0.78700
O189        O  0.62981489  0.39679924  0.87622063    -0.76900
O190        O  0.63814414  0.33881468  0.89334869    -1.13000
O191        O  0.59625548  0.35745190  0.86449675    -0.72200
C192        C  0.58478708  0.33439299  0.87163425     0.98500
C193        C  0.67777267  0.29799837  0.92755250     0.94900
Al194      Al  0.65939985  0.35356826  0.93443308     1.55600
O195        O  0.63829507  0.29104742  0.84032679    -0.76900
C196        C  0.63207774  0.40328623  0.92175313     0.99000
C197        C  0.62919184  0.31811698  0.00166633     0.93900
O198        O  0.61570269  0.31140490  0.96648858    -0.82200
O199        O  0.38057021  0.30978675  0.96878501    -0.81600
C200        C  0.32235589  0.38154542  0.85419724     0.97700
O201        O  0.32363696  0.38283649  0.90113973    -0.70800
O202        O  0.31555832  0.33160383  0.93674710    -0.74300
Al203      Al  0.34029172  0.35826243  0.94732665     1.49000
C204        C  0.31748344  0.30469428  0.94095713     0.93000
O205        O  0.35349412  0.29700697  0.84330167    -0.80600
O206        O  0.40211682  0.35711996  0.86962598    -0.74100
Al207      Al  0.36682569  0.30541806  0.90574862     1.90100
O208        O  0.37090533  0.33231587  0.80278172    -0.73200
O209        O  0.37180331  0.39976874  0.88763998    -0.73000
O210        O  0.33929990  0.37157059  0.82867599    -0.78700
O211        O  0.36278067  0.38713881  0.96379808    -0.76900
O212        O  0.35911683  0.34244230  0.90169973    -1.13000
O213        O  0.35234213  0.33594835  0.00254265    -0.72200
C214        C  0.36937347  0.31830065  0.00660032     0.98500
C215        C  0.36042516  0.30801758  0.80307411     0.94900
Al216      Al  0.37018609  0.36359105  0.85130205     1.55600
O217        O  0.33725451  0.29250278  0.93418926    -0.76900
C218        C  0.37075018  0.40555405  0.93356342     0.99000
C219        C  0.41138109  0.33244550  0.87378421     0.93900
O220        O  0.39852574  0.31012307  0.87905187    -0.82200
O221        O  0.40140499  0.19514212  0.38856553    -0.81600
C222        C  0.32430207  0.12681954  0.34277293     0.97700
O223        O  0.34229304  0.13740610  0.32130560    -0.70800
O224        O  0.37558637  0.17661500  0.30459924    -0.74300
Al225      Al  0.37252145  0.14378011  0.34971390     1.49000
C226        C  0.36648579  0.20162884  0.30652044     0.93000
O227        O  0.33819996  0.21282446  0.43395898    -0.80600
O228        O  0.34792577  0.16885001  0.49988801    -0.74100
Al229      Al  0.36882618  0.19997535  0.40994566     1.90100
O230        O  0.31568788  0.17445986  0.42441795    -0.73200
O231        O  0.36031056  0.11781885  0.45943694    -0.73000
O232        O  0.32409811  0.12346768  0.38951850    -0.78700
O233        O  0.37209117  0.10665616  0.38391175    -0.76900
O234        O  0.36017365  0.16362961  0.39998728    -1.13000
O235        O  0.40398134  0.14867047  0.37308337    -0.72200
C236        C  0.41380179  0.17273807  0.38150491     0.98500
C237        C  0.31789961  0.20099050  0.43289186     0.94900
Al238      Al  0.33891921  0.14722104  0.44018979     1.55600
O239        O  0.35875404  0.21155282  0.34686168    -0.76900
C240        C  0.36955117  0.10011021  0.42944553     0.99000
C241        C  0.36536515  0.18552774  0.50862299     0.93900
O242        O  0.37959957  0.19212565  0.47429685    -0.82200
O243        O  0.61804273  0.19160113  0.46660267    -0.81600
C244        C  0.67936012  0.12691915  0.34429036     0.97700
O245        O  0.67799409  0.12461960  0.39114850    -0.70800
O246        O  0.68380376  0.17598042  0.42787287    -0.74300
Al247      Al  0.66058458  0.14754544  0.43923664     1.49000
C248        C  0.68087425  0.20270891  0.43320396     0.93000
O249        O  0.64221694  0.21004608  0.34042610    -0.80600
O250        O  0.59881034  0.14438540  0.36473235    -0.74100
Al251      Al  0.63067572  0.19869110  0.40312244     1.90100
O252        O  0.62750605  0.17386159  0.29811246    -0.73200
O253        O  0.63180786  0.10444609  0.37868238    -0.73000
O254        O  0.66224742  0.13706890  0.31983316    -0.78700
O255        O  0.63925887  0.11729369  0.45534637    -0.76900
O256        O  0.64073109  0.16270064  0.39562898    -1.13000
O257        O  0.64830861  0.16802607  0.49665431    -0.72200
C258        C  0.63012980  0.18362000  0.50303951     0.98500
C259        C  0.63547115  0.19950562  0.29992959     0.94900
Al260      Al  0.63087285  0.14161448  0.34439708     1.55600
O261        O  0.66035720  0.21368897  0.42965379    -0.76900
C262        C  0.63245783  0.09855905  0.42465164     0.99000
C263        C  0.58765365  0.16756351  0.37244016     0.93900
O264        O  0.59874578  0.19117022  0.37913159    -0.82200
O265        O  0.90598158  0.31435920  0.59934511    -0.81600
C266        C  0.82522166  0.37460791  0.65043940     0.97700
O267        O  0.84424649  0.36642855  0.67018660    -0.70800
O268        O  0.88036765  0.33167651  0.68507959    -0.74300
Al269      Al  0.87409837  0.36293669  0.63850771     1.49000
C270        C  0.87321336  0.30565281  0.68605196     0.93000
O271        O  0.84295965  0.28813821  0.56210098    -0.80600
O272        O  0.84882875  0.33268354  0.49318793    -0.74100
Al273      Al  0.87326744  0.30507507  0.58212947     1.90100
O274        O  0.81824968  0.32421254  0.57158404    -0.73200
O275        O  0.85800524  0.38465142  0.52950255    -0.73000
O276        O  0.82374294  0.37667344  0.60361939    -0.78700
O277        O  0.87056599  0.39922372  0.60228467    -0.76900
O278        O  0.86224139  0.34055013  0.59103122    -1.13000
O279        O  0.90509932  0.36124881  0.61167476    -0.72200
C280        C  0.91666100  0.33840603  0.60406808     0.98500
C281        C  0.82193727  0.29791301  0.56315004     0.94900
Al282      Al  0.83921461  0.35371030  0.55255535     1.55600
O283        O  0.86547129  0.29379514  0.64734192    -0.76900
C284        C  0.86701107  0.40392371  0.55649217     0.99000
C285        C  0.86726864  0.31823111  0.48277332     0.93900
O286        O  0.88213844  0.31251218  0.51593356    -0.82200
O287        O  0.12432458  0.31262772  0.53178220    -0.81600
C288        C  0.17973276  0.38211560  0.65699055     0.97700
O289        O  0.17925521  0.38434038  0.61021094    -0.70800
O290        O  0.18808472  0.33263751  0.57881489    -0.74300
Al291      Al  0.16452287  0.35939005  0.56218731     1.49000
C292        C  0.18592579  0.30580815  0.57351939     0.93000
O293        O  0.14548596  0.29745031  0.66080135    -0.80600
O294        O  0.10000306  0.35953509  0.63002997    -0.74100
Al295      Al  0.13518076  0.30716097  0.59689705     1.90100
O296        O  0.12839491  0.33305254  0.70073841    -0.73200
O297        O  0.13197876  0.40152143  0.61646308    -0.73000
O298        O  0.16211731  0.37189600  0.68049240    -0.78700
O299        O  0.14298853  0.38775846  0.54183526    -0.76900
O300        O  0.14365563  0.34382313  0.60394964    -1.13000
O301        O  0.15504980  0.33726030  0.50456250    -0.72200
C302        C  0.13760301  0.32062727  0.49660974     0.98500
C303        C  0.13772936  0.30812848  0.70050166     0.94900
Al304      Al  0.13153200  0.36493188  0.65313016     1.55600
O305        O  0.16568303  0.29387021  0.57381585    -0.76900
C306        C  0.13440261  0.40660770  0.57032522     0.99000
C307        C  0.09026546  0.33533234  0.62209458     0.93900
O308        O  0.10266120  0.31268199  0.61778217    -0.82200
O309        O  0.09522565  0.19252839  0.11759698    -0.81600
C310        C  0.17544158  0.12966444  0.16147901     0.97700
O311        O  0.15680828  0.13827849  0.18283517    -0.70800
O312        O  0.12158204  0.17373324  0.20113228    -0.74300
Al313      Al  0.12664288  0.14278167  0.15372730     1.49000
C314        C  0.12931407  0.19946008  0.20206577     0.93000
O315        O  0.15792953  0.21732183  0.07696853    -0.80600
O316        O  0.15021559  0.17292946  0.00640800    -0.74100
Al317      Al  0.12774570  0.20103778  0.09825660     1.90100
O318        O  0.18212333  0.18045959  0.08182379    -0.73200
O319        O  0.14086238  0.12085809  0.04331323    -0.73000
O320        O  0.17643348  0.12816753  0.11445636    -0.78700
O321        O  0.12926321  0.10655944  0.11722468    -0.76900
O322        O  0.13822717  0.16513542  0.10548469    -1.13000
O323        O  0.09528413  0.14556200  0.12959267    -0.72200
C324        C  0.08414292  0.16880671  0.12275442     0.98500
C325        C  0.17874168  0.20706920  0.07636529     0.94900
Al326      Al  0.16043536  0.15152613  0.06475990     1.55600
O327        O  0.13649360  0.21154124  0.16295382    -0.76900
C328        C  0.13247073  0.10156797  0.07137267     0.99000
C329        C  0.13205310  0.18817829  0.99773264     0.93900
O330        O  0.11798352  0.19467460  0.03238989    -0.82200
O331        O  0.87710346  0.19408979  0.01713472    -0.81600
C332        C  0.82219188  0.12292288  0.14285476     0.97700
O333        O  0.82346257  0.11999349  0.09614963    -0.70800
O334        O  0.81332447  0.17066092  0.06240698    -0.74300
Al335      Al  0.83820421  0.14528877  0.04762356     1.49000
C336        C  0.81433081  0.19753744  0.05672842     0.93000
O337        O  0.85332438  0.20943577  0.14514363    -0.80600
O338        O  0.90119396  0.14945843  0.11880425    -0.74100
Al339      Al  0.86495651  0.19956926  0.08178246     1.90100
O340        O  0.87083032  0.17484115  0.18640286    -0.73200
O341        O  0.87146775  0.10575316  0.10468471    -0.73000
O342        O  0.83911521  0.13429968  0.16635362    -0.78700
O343        O  0.86132908  0.11810034  0.02911586    -0.76900
O344        O  0.85772120  0.16252506  0.08971834    -1.13000
O345        O  0.84782452  0.16743457  0.98950504    -0.72200
C346        C  0.86485272  0.18483911  0.98157889     0.98500
C347        C  0.86088135  0.19934156  0.18526404     0.94900
Al348      Al  0.86970633  0.14258679  0.14009262     1.55600
O349        O  0.83407350  0.21079728  0.05707978    -0.76900
C350        C  0.87062051  0.10037216  0.05848482     0.99000
C351        C  0.91044226  0.17401102  0.11171910     0.93900
O352        O  0.89753952  0.19600327  0.10443313    -0.82200
C353        C  0.97761262  0.19082008  0.11278402     0.16100
C354        C  0.00047734  0.20315853  0.11112522    -0.32900
C355        C  0.02000680  0.18458236  0.11663543     0.20500
C356        C  0.01683269  0.15514306  0.12373137     0.02700
C357        C  0.99407986  0.14290847  0.12563978    -0.22700
C358        C  0.97465664  0.16136635  0.11989625     0.11900
S359        S  0.95147773  0.20924096  0.10615208    -0.06300
C360        C  0.93656162  0.17681550  0.11294690    -0.09800
C361        C  0.95126294  0.15325897  0.12010355    -0.26400
S362        S  0.04251080  0.13608676  0.12925554    -0.03600
C363        C  0.05794472  0.16800561  0.12183873    -0.17000
C364        C  0.04366576  0.19214402  0.11556702    -0.15000
H365        H  0.00293764  0.22613689  0.10549119     0.20300
H366        H  0.99162001  0.11990732  0.13107289     0.16400
H367        H  0.94514473  0.13122510  0.12506463     0.18900
H368        H  0.05023054  0.21396822  0.11044444     0.12200
C369        C  0.13860008  0.28920568  0.36505141     0.16100
C370        C  0.14383181  0.28174603  0.31574074    -0.32900
C371        C  0.13587286  0.25472636  0.29873690     0.20500
C372        C  0.12333466  0.23592442  0.32933596     0.02700
C373        C  0.11779323  0.24357380  0.37828671    -0.22700
C374        C  0.12561497  0.27060100  0.39517641     0.11900
S375        S  0.14820608  0.31988500  0.39436510    -0.06300
C376        C  0.13422872  0.30757683  0.44742731    -0.09800
C377        C  0.12275717  0.28122117  0.44210597    -0.26400
S378        S  0.11573909  0.20388386  0.30209013    -0.03600
C379        C  0.12930626  0.21607877  0.24860362    -0.17000
C380        C  0.13927608  0.24347639  0.25226685    -0.15000
H381        H  0.15397609  0.29612915  0.29194166     0.20300
H382        H  0.10805285  0.22894859  0.40238535     0.16400
H383        H  0.11399420  0.26956174  0.47195129     0.18900
H384        H  0.14843615  0.25463468  0.22238142     0.12200
C385        C  0.14651830  0.25246789  0.80423615     0.16100
C386        C  0.15415932  0.22950015  0.83411933    -0.32900
C387        C  0.14012399  0.22206503  0.87547821     0.20500
C388        C  0.11918804  0.23656275  0.88597521     0.02700
C389        C  0.11154355  0.25952076  0.85607468    -0.22700
C390        C  0.12584066  0.26737416  0.81534762     0.11900
S391        S  0.16085336  0.26442382  0.75213501    -0.06300
C392        C  0.13904433  0.29018786  0.74560153    -0.09800
C393        C  0.12158440  0.28932720  0.78212475    -0.26400
S394        S  0.10542829  0.22557385  0.93934419    -0.03600
C395        C  0.12844038  0.20170872  0.94870230    -0.17000
C396        C  0.14546807  0.20188152  0.91116786    -0.15000
H397        H  0.17052434  0.21821298  0.82589854     0.20300
H398        H  0.09540061  0.27114563  0.86480554     0.16400
H399        H  0.10611218  0.30313127  0.78304956     0.18900
H400        H  0.16170300  0.18943354  0.91171762     0.12200
C401        C  0.85155508  0.25472090  0.28936204     0.16100
C402        C  0.84418521  0.27776147  0.31962588    -0.32900
C403        C  0.85807377  0.28441519  0.36122624     0.20500
C404        C  0.87852910  0.26904038  0.37161794     0.02700
C405        C  0.88573264  0.24588297  0.34172729    -0.22700
C406        C  0.87166787  0.23891818  0.30074597     0.11900
S407        S  0.83776563  0.24383658  0.23626089    -0.06300
C408        C  0.85906227  0.21737243  0.23003450    -0.09800
C409        C  0.87586898  0.21717704  0.26726176    -0.26400
S410        S  0.89252938  0.27951344  0.42444718    -0.03600
C411        C  0.87026268  0.30439258  0.43391029    -0.17000
C412        C  0.85321717  0.30484544  0.39691330    -0.15000
H413        H  0.82827232  0.28982781  0.31128795     0.20300
H414        H  0.90149589  0.23360343  0.35039310     0.16400
H415        H  0.89095766  0.20277095  0.26848270     0.18900
H416        H  0.83741331  0.31808965  0.39765535     0.12200
C417        C  0.86486262  0.21521122  0.84892557     0.16100
C418        C  0.85888875  0.22326852  0.80039764    -0.32900
C419        C  0.86799327  0.24956521  0.78227793     0.20500
C420        C  0.88259965  0.26697407  0.81085945     0.02700
C421        C  0.88907112  0.25854632  0.85887580    -0.22700
C422        C  0.87979073  0.23239637  0.87716982     0.11900
S423        S  0.85348862  0.18591672  0.87996692    -0.06300
C424        C  0.86901219  0.19697263  0.93158237    -0.09800
C425        C  0.88253273  0.22178996  0.92422838    -0.26400
S426        S  0.89080272  0.29873988  0.78289921    -0.03600
C427        C  0.87450112  0.28837134  0.73198032    -0.17000
C428        C  0.86345325  0.26162550  0.73689156    -0.15000
H429        H  0.84703828  0.21010023  0.77831223     0.20300
H430        H  0.90027394  0.27219646  0.88157028     0.16400
H431        H  0.89257027  0.23266257  0.95291539     0.18900
H432        H  0.85248727  0.25161433  0.70878325     0.12200
C433        C  0.98371570  0.35425751  0.60801858     0.16100
C434        C  0.00620260  0.36696440  0.61345173    -0.32900
C435        C  0.02599372  0.34868123  0.61339296     0.20500
C436        C  0.02354630  0.31905584  0.60762065     0.02700
C437        C  0.00103234  0.30634326  0.60185626    -0.22700
C438        C  0.98118091  0.32462525  0.60242324     0.11900
S439        S  0.95755423  0.37267858  0.60932082    -0.06300
C440        C  0.94286323  0.34014858  0.60270362    -0.09800
C441        C  0.95773578  0.31637557  0.59913748    -0.26400
S442        S  0.04978419  0.30065207  0.60895584    -0.03600
C443        C  0.06419914  0.33319576  0.61774405    -0.17000
C444        C  0.04925501  0.35692858  0.61921973    -0.15000
H445        H  0.00815714  0.39007984  0.61820981     0.20300
H446        H  0.99905874  0.28319165  0.59773301     0.16400
H447        H  0.95171316  0.29423234  0.59554753     0.18900
H448        H  0.05509886  0.37905197  0.62422213     0.12200
C449        C  0.75960060  0.11070158  0.19585307     0.16100
C450        C  0.73493084  0.11136751  0.20335981    -0.32900
C451        C  0.72647449  0.11256937  0.25244489     0.20500
C452        C  0.74184568  0.11199291  0.29242087     0.02700
C453        C  0.76653182  0.11100467  0.28492354    -0.22700
C454        C  0.77502391  0.11093667  0.23575864     0.11900
S455        S  0.77333074  0.11258028  0.13918602    -0.06300
C456        C  0.80015390  0.11473947  0.16942022    -0.09800
C457        C  0.79833678  0.11327944  0.22081284    -0.26400
S458        S  0.72811509  0.11536627  0.34893400    -0.03600
C459        C  0.70146594  0.11861104  0.31832343    -0.17000
C460        C  0.70329662  0.11637127  0.26706940    -0.15000
H461        H  0.72288982  0.11230620  0.17223454     0.20300
H462        H  0.77860970  0.11164851  0.31601621     0.16400
H463        H  0.81317012  0.11538477  0.24595481     0.18900
H464        H  0.68857816  0.11866293  0.24172070     0.12200
C465        C  0.77503553  0.24570769  0.51207072     0.16100
C466        C  0.76262670  0.22305142  0.48929204    -0.32900
C467        C  0.73906663  0.22819971  0.47510509     0.20500
C468        C  0.72829309  0.25469785  0.48291160     0.02700
C469        C  0.74070538  0.27734645  0.50561126    -0.22700
C470        C  0.76417821  0.27211744  0.52016816     0.11900
S471        S  0.80407881  0.24436358  0.53040750    -0.06300
C472        C  0.80149821  0.27977680  0.54920764    -0.09800
C473        C  0.77916141  0.29157801  0.54187283    -0.26400
S474        S  0.69923162  0.25611164  0.46491876    -0.03600
C475        C  0.70151879  0.22046244  0.44735957    -0.17000
C476        C  0.72385482  0.20857766  0.45438390    -0.15000
H477        H  0.77093241  0.20230440  0.48300391     0.20300
H478        H  0.73238910  0.29808080  0.51198145     0.16400
H479        H  0.77444125  0.31378106  0.54976340     0.18900
H480        H  0.72844043  0.18630337  0.44676282     0.12200
C481        C  0.48100693  0.18866641  0.38538541     0.16100
C482        C  0.50381816  0.20099875  0.38833827    -0.32900
C483        C  0.52342125  0.18272811  0.38099326     0.20500
C484        C  0.52036539  0.15352702  0.37131286     0.02700
C485        C  0.49764105  0.14124636  0.36847821    -0.22700
C486        C  0.47811288  0.15945619  0.37566134     0.11900
S487        S  0.45486538  0.20697512  0.39254428    -0.06300
C488        C  0.43995922  0.17489659  0.38219524    -0.09800
C489        C  0.45467424  0.15144203  0.37384777    -0.26400
S490        S  0.54615087  0.13488176  0.36344462    -0.03600
C491        C  0.56144197  0.16668246  0.37313172    -0.17000
C492        C  0.54704374  0.19045200  0.38211401    -0.15000
H493        H  0.50617462  0.22380645  0.39584917     0.20300
H494        H  0.49528119  0.11844926  0.36084004     0.16400
H495        H  0.44854186  0.12965614  0.36652662     0.18900
H496        H  0.55349683  0.21212578  0.38916965     0.12200
C497        C  0.27411665  0.11545647  0.24833492     0.16100
C498        C  0.26022399  0.11479113  0.20519485    -0.32900
C499        C  0.23544219  0.11652389  0.21079046     0.20500
C500        C  0.22497033  0.11840149  0.25740307     0.02700
C501        C  0.23883124  0.11843938  0.30059624    -0.22700
C502        C  0.26362913  0.11709091  0.29495946     0.11900
S503        S  0.30445813  0.11686355  0.24904923    -0.06300
C504        C  0.30312558  0.11963259  0.31288446    -0.09800
C505        C  0.28018370  0.11914753  0.33219789    -0.26400
S506        S  0.19487201  0.12284697  0.25624262    -0.03600
C507        C  0.19629324  0.12239383  0.19220302    -0.17000
C508        C  0.21905796  0.11852397  0.17321747    -0.15000
H509        H  0.26843105  0.11410811  0.16875033     0.20300
H510        H  0.23068143  0.12053910  0.33693444     0.16400
H511        H  0.27581089  0.12196602  0.37110633     0.18900
H512        H  0.22354691  0.11870822  0.13406775     0.12200
C513        C  0.25810263  0.23017173  0.47416283     0.16100
C514        C  0.23424385  0.23351601  0.48744611    -0.32900
C515        C  0.22857918  0.25632167  0.51937804     0.20500
C516        C  0.24586115  0.27499008  0.53730803     0.02700
C517        C  0.26974709  0.27149966  0.52433655    -0.22700
C518        C  0.27539303  0.24880341  0.49215661     0.11900
S519        S  0.26868516  0.20319554  0.43742821    -0.06300
C520        C  0.29669488  0.21717328  0.44659527    -0.09800
C521        C  0.29761944  0.24161027  0.47599795    -0.26400
S522        S  0.23516379  0.30269537  0.57228247    -0.03600
C523        C  0.20713274  0.28903153  0.56226180    -0.17000
C524        C  0.20628297  0.26403381  0.53427382    -0.15000
H525        H  0.22068667  0.21909806  0.47329377     0.20300
H526        H  0.28328180  0.28605737  0.53815941     0.16400
H527        H  0.31378555  0.25243870  0.48737156     0.18900
H528        H  0.19013180  0.25334440  0.52243523     0.12200
C529        C  0.34829078  0.25468284  0.69708339     0.16100
C530        C  0.34060572  0.23135986  0.66773962    -0.32900
C531        C  0.35457116  0.22382228  0.62631799     0.20500
C532        C  0.37514208  0.23902190  0.61473687     0.02700
C533        C  0.38246912  0.26272683  0.64325352    -0.22700
C534        C  0.36859525  0.27019787  0.68461446     0.11900
S535        S  0.33525248  0.26546988  0.75140023    -0.06300
C536        C  0.35729900  0.29124441  0.75710137    -0.09800
C537        C  0.37360073  0.29157552  0.71838104    -0.26400
S538        S  0.38962548  0.22691125  0.56321508    -0.03600
C539        C  0.36760484  0.20123866  0.55609581    -0.17000
C540        C  0.35007528  0.20207516  0.59264768    -0.15000
H541        H  0.32469624  0.21931388  0.67729201     0.20300
H542        H  0.39849139  0.27461718  0.63392937     0.16400
H543        H  0.38912725  0.30543991  0.71670034     0.18900
H544        H  0.33433180  0.18856154  0.59313553     0.12200
C545        C  0.38290106  0.26842345  0.11541053     0.16100
C546        C  0.38913930  0.24429568  0.14388378    -0.32900
C547        C  0.37699513  0.23990275  0.18886298     0.20500
C548        C  0.35977052  0.25907676  0.20521873     0.02700
C549        C  0.35354105  0.28321656  0.17676677    -0.22700
C550        C  0.36537187  0.28729714  0.13133276     0.11900
S551        S  0.39410096  0.27599950  0.05795287    -0.06300
C552        C  0.37450554  0.30445603  0.05451385    -0.09800
C553        C  0.36055778  0.30816182  0.09665203    -0.26400
S554        S  0.34751982  0.25042921  0.26129984    -0.03600
C555        C  0.36553723  0.22040398  0.26253191    -0.17000
C556        C  0.38024031  0.21744844  0.22142206    -0.15000
H557        H  0.40251377  0.22926347  0.13100844     0.20300
H558        H  0.33978576  0.29788661  0.18911411     0.16400
H559        H  0.34651849  0.32395233  0.10031491     0.18900
H560        H  0.39307948  0.20033142  0.21637033     0.12200
C561        C  0.27093590  0.25270526  0.99330308     0.16100
C562        C  0.25866169  0.22905202  0.01312324    -0.32900
C563        C  0.23607119  0.23405916  0.03322561     0.20500
C564        C  0.22601469  0.26134318  0.03381053     0.02700
C565        C  0.23847069  0.28514647  0.01460800    -0.22700
C566        C  0.26105887  0.28009659  0.99414990     0.11900
S567        S  0.29860546  0.25104724  0.96742075    -0.06300
C568        C  0.29695399  0.28770752  0.95782744    -0.09800
C569        C  0.27591523  0.30030645  0.97361510    -0.26400
S570        S  0.19753225  0.26220756  0.05624979    -0.03600
C571        C  0.19931740  0.22541272  0.06458190    -0.17000
C572        C  0.22100876  0.21350346  0.05151203    -0.15000
H573        H  0.26625110  0.20759685  0.01231792     0.20300
H574        H  0.23074350  0.30652644  0.01475354     0.16400
H575        H  0.27203752  0.32317656  0.97170104     0.18900
H576        H  0.22506913  0.19065310  0.05246681     0.12200
C577        C  0.25987643  0.39509801  0.80433750     0.16100
C578        C  0.23519137  0.39502611  0.79759024    -0.32900
C579        C  0.22671005  0.39453690  0.74871979     0.20500
C580        C  0.24212790  0.39511798  0.70835884     0.02700
C581        C  0.26679309  0.39543550  0.71508423    -0.22700
C582        C  0.27525558  0.39494207  0.76391933     0.11900
S583        S  0.27363913  0.39248569  0.86048428    -0.06300
C584        C  0.30033666  0.39019135  0.82914312    -0.09800
C585        C  0.29849466  0.39216815  0.77791644    -0.26400
S586        S  0.22846282  0.39273380  0.65218058    -0.03600
C587        C  0.20168804  0.39000739  0.68328291    -0.17000
C588        C  0.20344098  0.39155044  0.73455478    -0.15000
H589        H  0.22314018  0.39409304  0.82904725     0.20300
H590        H  0.27885089  0.39480978  0.68361616     0.16400
H591        H  0.31324457  0.39009587  0.75216162     0.18900
H592        H  0.18862296  0.38928912  0.76011235     0.12200
C593        C  0.73807234  0.26732703  0.95909170     0.16100
C594        C  0.76226334  0.26461128  0.96894345    -0.32900
C595        C  0.76907872  0.24295898  0.00187456     0.20500
C596        C  0.75258459  0.22443837  0.02356784     0.02700
C597        C  0.72824830  0.22726380  0.01392335    -0.22700
C598        C  0.72138196  0.24921847  0.98119962     0.11900
S599        S  0.72650737  0.29354082  0.92270866    -0.06300
C600        C  0.69873363  0.28055814  0.93805467    -0.09800
C601        C  0.69858156  0.25656899  0.96880539    -0.26400
S602        S  0.76481884  0.19825087  0.05965449    -0.03600
C603        C  0.79231548  0.21270772  0.04542985    -0.17000
C604        C  0.79186964  0.23663590  0.01491093    -0.15000
H605        H  0.77521686  0.27892867  0.95191547     0.20300
H606        H  0.71529029  0.21302906  0.03111772     0.16400
H607        H  0.68274783  0.24643694  0.98395004     0.18900
H608        H  0.80746413  0.24763733  0.00045908     0.12200
C609        C  0.72683018  0.38520823  0.74213425     0.16100
C610        C  0.74057198  0.38683815  0.69853968    -0.32900
C611        C  0.76534131  0.38516430  0.70307317     0.20500
C612        C  0.77595684  0.38230575  0.74909381     0.02700
C613        C  0.76222507  0.38116448  0.79279667    -0.22700
C614        C  0.73742437  0.38256369  0.78822559     0.11900
S615        S  0.69654140  0.38406444  0.74386743    -0.06300
C616        C  0.69802316  0.37999715  0.80741643    -0.09800
C617        C  0.72096181  0.37987249  0.82597481    -0.26400
S618        S  0.80608868  0.37843116  0.74644484    -0.03600
C619        C  0.80444603  0.38056203  0.68260082    -0.17000
C620        C  0.78160484  0.38439501  0.66478162    -0.15000
H621        H  0.73226970  0.38837072  0.66250111     0.20300
H622        H  0.77047986  0.37837115  0.82865347     0.16400
H623        H  0.72537142  0.37637254  0.86457024     0.18900
H624        H  0.77701057  0.38516285  0.62583367     0.12200
C625        C  0.63920758  0.24347558  0.69982139     0.16100
C626        C  0.64615226  0.21956253  0.67141954    -0.32900
C627        C  0.63353294  0.21387156  0.62784904     0.20500
C628        C  0.61441962  0.23078629  0.61397960     0.02700
C629        C  0.60736313  0.25459371  0.64258727    -0.22700
C630        C  0.62045279  0.26081859  0.68535414     0.11900
S631        S  0.65249071  0.25410000  0.75340260    -0.06300
C632        C  0.63289492  0.28256305  0.75595346    -0.09800
C633        C  0.61688934  0.28357526  0.71721508    -0.26400
S634        S  0.60269972  0.22193810  0.55790470    -0.03600
C635        C  0.62439859  0.19594885  0.55195031    -0.17000
C636        C  0.63921448  0.19360746  0.59259555    -0.15000
H637        H  0.66116787  0.20646874  0.68208931     0.20300
H638        H  0.59281965  0.26822717  0.63110478     0.16400
H639        H  0.60291773  0.29942217  0.71358564     0.18900
H640        H  0.65454642  0.17961088  0.59441164     0.12200
C641        C  0.61668218  0.26804946  0.11176180     0.16100
C642        C  0.61039843  0.24387810  0.14059295    -0.32900
C643        C  0.62347713  0.23867863  0.18383370     0.20500
C644        C  0.64156069  0.25722539  0.19829153     0.02700
C645        C  0.64785466  0.28134139  0.16942781    -0.22700
C646        C  0.63517990  0.28614144  0.12558191     0.11900
S647        S  0.60435105  0.27660158  0.05608866    -0.06300
C648        C  0.62484777  0.30429761  0.05030320    -0.09800
C649        C  0.63993003  0.30703988  0.09054020    -0.26400
S650        S  0.65476691  0.24789202  0.25270979    -0.03600
C651        C  0.63614091  0.21826906  0.25570975    -0.17000
C652        C  0.62043385  0.21603096  0.21641437    -0.15000
H653        H  0.59628435  0.22941201  0.12922003     0.20300
H654        H  0.66230198  0.29545878  0.18025112     0.16400
H655        H  0.65458414  0.32220933  0.09255684     0.18900
H656        H  0.60700563  0.19935965  0.21282171     0.12200
C657        C  0.51808391  0.34937041  0.86510099     0.16100
C658        C  0.49569145  0.36215829  0.86184634    -0.32900
C659        C  0.47578048  0.34417588  0.86670222     0.20500
C660        C  0.47798722  0.31466704  0.87410057     0.02700
C661        C  0.50046936  0.30179675  0.87715500    -0.22700
C662        C  0.52045793  0.31988576  0.87268008     0.11900
S663        S  0.54422545  0.36780280  0.86112683    -0.06300
C664        C  0.55870767  0.33555846  0.87014273    -0.09800
C665        C  0.54385001  0.31176023  0.87556307    -0.26400
S666        S  0.45148108  0.29679861  0.87967930    -0.03600
C667        C  0.43738807  0.32950496  0.87216428    -0.17000
C668        C  0.45258060  0.35280494  0.86554749    -0.15000
H669        H  0.49386823  0.38520422  0.85621968     0.20300
H670        H  0.50229216  0.27879268  0.88320765     0.16400
H671        H  0.54981794  0.28983378  0.88150547     0.18900
H672        H  0.44695134  0.37495176  0.86054235     0.12200
C673        C  0.12716867  0.47636979  0.49554109     0.16100
C674        C  0.12812809  0.49741503  0.45817199    -0.32900
C675        C  0.12768112  0.52645893  0.47272913     0.20500
C676        C  0.12603567  0.53420280  0.52236945     0.02700
C677        C  0.12457723  0.51310451  0.55977484    -0.22700
C678        C  0.12537678  0.48398809  0.54522169     0.11900
S679        S  0.12999677  0.44025700  0.48537690    -0.06300
C680        C  0.12892818  0.43508752  0.54875440    -0.09800
C681        C  0.12615466  0.46029345  0.57607868    -0.26400
S682        S  0.12808392  0.57050699  0.53261475    -0.03600
C683        C  0.13137082  0.57528064  0.46939533    -0.17000
C684        C  0.13042946  0.54995561  0.44207424    -0.15000
H685        H  0.13009637  0.49140160  0.41951574     0.20300
H686        H  0.12382385  0.51913301  0.59859100     0.16400
H687        H  0.12608381  0.46138164  0.61623117     0.18900
H688        H  0.13310177  0.54864819  0.40228844     0.12200
C689        C  0.87580076  0.47303347  0.47952355     0.16100
C690        C  0.87588045  0.49394765  0.44184169    -0.32900
C691        C  0.87823170  0.52297830  0.45591584     0.20500
C692        C  0.88066361  0.53078436  0.50533856     0.02700
C693        C  0.88118199  0.50979214  0.54293469    -0.22700
C694        C  0.87851520  0.48075720  0.52891718     0.11900
S695        S  0.87085622  0.43709009  0.47031619    -0.06300
C696        C  0.87237150  0.43223188  0.53370742    -0.09800
C697        C  0.87681836  0.45734696  0.56025482    -0.26400
S698        S  0.88086257  0.56719666  0.51527618    -0.03600
C699        C  0.87761432  0.57200378  0.45221109    -0.17000
C700        C  0.87682334  0.54655815  0.42511949    -0.15000
H701        H  0.87331793  0.48792571  0.40339716     0.20300
H702        H  0.88266429  0.51591349  0.58158900     0.16400
H703        H  0.87770439  0.45860532  0.60033682     0.18900
H704        H  0.87391507  0.54535560  0.38547327     0.12200
C705        C  0.02786930  0.68830771  0.38864029     0.16100
C706        C  0.00511742  0.70055865  0.39077524    -0.32900
C707        C  0.98550870  0.68189751  0.38646542     0.20500
C708        C  0.98845786  0.65239283  0.38016649     0.02700
C709        C  0.01116932  0.64017499  0.37801526    -0.22700
C710        C  0.03074294  0.65878885  0.38243858     0.11900
S711        S  0.05393740  0.70710736  0.39345830    -0.06300
C712        C  0.06885580  0.67482673  0.38717395    -0.09800
C713        C  0.05419674  0.65092686  0.38153732    -0.26400
S714        S  0.96255532  0.63339511  0.37533293    -0.03600
C715        C  0.94745640  0.66548708  0.38191489    -0.17000
C716        C  0.96196710  0.68956639  0.38759146    -0.15000
H717        H  0.00280500  0.72359686  0.39564909     0.20300
H718        H  0.01348175  0.61713502  0.37314254     0.16400
H719        H  0.06036884  0.62893835  0.37721290     0.18900
H720        H  0.95564415  0.71148676  0.39194367     0.12200
C721        C  0.88404416  0.97403947  0.00990533     0.16100
C722        C  0.88343897  0.99479923  0.04790463    -0.32900
C723        C  0.88387833  0.02401804  0.03405636     0.20500
C724        C  0.88553934  0.03209729  0.98456566     0.02700
C725        C  0.88695093  0.01133787  0.94670094    -0.22700
C726        C  0.88581466  0.98214331  0.96044546     0.11900
S727        S  0.88019376  0.93784535  0.01872713    -0.06300
C728        C  0.88063979  0.93350490  0.95509981    -0.09800
C729        C  0.88421238  0.95890606  0.92876316    -0.26400
S730        S  0.88282508  0.06828595  0.97472452    -0.03600
C731        C  0.87900532  0.07270165  0.03784354    -0.17000
C732        C  0.88051069  0.04732862  0.06500106    -0.15000
H733        H  0.88133522  0.98845823  0.08637950     0.20300
H734        H  0.88751354  0.01769566  0.90802710     0.16400
H735        H  0.88412447  0.96052019  0.88866401     0.18900
H736        H  0.87745735  0.04574886  0.10464202     0.12200
C737        C  0.86799515  0.71940408  0.63571870     0.16100
C738        C  0.86026198  0.72888222  0.68257109    -0.32900
C739        C  0.87140974  0.75334235  0.70286502     0.20500
C740        C  0.88950458  0.76772419  0.67782049     0.02700
C741        C  0.89756839  0.75787338  0.63143745    -0.22700
C742        C  0.88636630  0.73347365  0.61103535     0.11900
S743        S  0.85532154  0.69187827  0.60263735    -0.06300
C744        C  0.87500927  0.69933368  0.55497108    -0.09800
C745        C  0.89066592  0.72181965  0.56502681    -0.26400
S746        S  0.90005827  0.79765566  0.70802358    -0.03600
C747        C  0.88007088  0.79051811  0.75517843    -0.17000
C748        C  0.86607079  0.76617721  0.74741212    -0.15000
H749        H  0.84580319  0.71809178  0.70183689     0.20300
H750        H  0.91160460  0.76912095  0.61159258     0.16400
H751        H  0.90354427  0.73039169  0.53880494     0.18900
H752        H  0.85262005  0.75832834  0.77304870     0.12200
C753        C  0.86854135  0.78777206  0.13650310     0.16100
C754        C  0.86223108  0.77968117  0.18502009    -0.32900
C755        C  0.87098468  0.75330860  0.20290510     0.20500
C756        C  0.88529635  0.73569985  0.17387061     0.02700
C757        C  0.89195890  0.74404451  0.12580837    -0.22700
C758        C  0.88333360  0.77044308  0.10806332     0.11900
S759        S  0.85825242  0.81765507  0.10604771    -0.06300
C760        C  0.87437385  0.80679095  0.05480322    -0.09800
C761        C  0.88702956  0.78147120  0.06161625    -0.26400
S762        S  0.89347294  0.70414297  0.20178834    -0.03600
C763        C  0.87778283  0.71498932  0.25352224    -0.17000
C764        C  0.86673701  0.74159542  0.24879487    -0.15000
H765        H  0.85067890  0.79307167  0.20751214     0.20300
H766        H  0.90310776  0.73036198  0.10294088     0.16400
H767        H  0.89726739  0.77069151  0.03295669     0.18900
H768        H  0.85618622  0.75185114  0.27751966     0.12200
C769        C  0.12603119  0.03118404  0.99729718     0.16100
C770        C  0.12639966  0.01006073  0.95991663    -0.32900
C771        C  0.12847784  0.98109160  0.97449235     0.20500
C772        C  0.12985490  0.97350754  0.02418504     0.02700
C773        C  0.12898494  0.99459153  0.06163889    -0.22700
C774        C  0.12716315  0.02360260  0.04702705     0.11900
S775        S  0.12615592  0.06752919  0.98684500    -0.06300
C776        C  0.12783168  0.07272531  0.05011577    -0.09800
C777        C  0.12787210  0.04738468  0.07763984    -0.26400
S778        S  0.13421736  0.93751684  0.03410097    -0.03600
C779        C  0.13421360  0.93252420  0.97061836    -0.17000
C780        C  0.13074785  0.95762121  0.94353572    -0.15000
H781        H  0.12595150  0.01603624  0.92107714     0.20300
H782        H  0.13050578  0.98871118  0.10038483     0.16400
H783        H  0.12978020  0.04640106  0.11757566     0.18900
H784        H  0.13098777  0.95883520  0.90339297     0.12200
C785        C  0.15210500  0.75452883  0.70863648     0.16100
C786        C  0.15938760  0.73123333  0.67936312    -0.32900
C787        C  0.14502841  0.72349422  0.63935074     0.20500
C788        C  0.12420358  0.73813244  0.62901999     0.02700
C789        C  0.11679002  0.76138660  0.65862473    -0.22700
C790        C  0.13136167  0.76939952  0.69839987     0.11900
S791        S  0.16691082  0.76653553  0.75940133    -0.06300
C792        C  0.14502592  0.79199948  0.76709804    -0.09800
C793        C  0.12730668  0.79130571  0.73170608    -0.26400
S794        S  0.11052827  0.72701774  0.57599410    -0.03600
C795        C  0.13343867  0.70289820  0.56723806    -0.17000
C796        C  0.15021427  0.70296697  0.60453152    -0.15000
H797        H  0.17573597  0.71988313  0.68703893     0.20300
H798        H  0.10067601  0.77307953  0.65039588     0.16400
H799        H  0.11172874  0.80494351  0.73199083     0.18900
H800        H  0.16644305  0.69048402  0.60396142     0.12200
C801        C  0.12982623  0.76637646  0.12555057     0.16100
C802        C  0.12218023  0.74336839  0.15549502    -0.32900
C803        C  0.13583410  0.73669581  0.19718764     0.20500
C804        C  0.15606969  0.75244154  0.20881226     0.02700
C805        C  0.16386920  0.77522826  0.17853651    -0.22700
C806        C  0.15027389  0.78180255  0.13670559     0.11900
S807        S  0.11631225  0.77694203  0.07223530    -0.06300
C808        C  0.13867027  0.80211215  0.06429087    -0.09800
C809        C  0.15539847  0.80246530  0.10177400    -0.26400
S810        S  0.16923949  0.74233552  0.26279460    -0.03600
C811        C  0.14738954  0.71645408  0.26950351    -0.17000
C812        C  0.13095976  0.71563167  0.23157221    -0.15000
H813        H  0.10631378  0.73117090  0.14662041     0.20300
H814        H  0.17977396  0.78737422  0.18732326     0.16400
H815        H  0.17120262  0.81588272  0.10192807     0.18900
H816        H  0.11558672  0.70150443  0.23067563     0.12200
C817        C  0.02893833  0.81764081  0.89348236     0.16100
C818        C  0.00630529  0.80476154  0.89247918    -0.32900
C819        C  0.98648787  0.82308819  0.89363647     0.20500
C820        C  0.98917877  0.85285319  0.89608500     0.02700
C821        C  0.01174248  0.86567094  0.89745246    -0.22700
C822        C  0.03150129  0.84741791  0.89577174     0.11900
S823        S  0.05522535  0.79937680  0.89116414    -0.06300
C824        C  0.06977721  0.83224095  0.89281809    -0.09800
C825        C  0.05486111  0.85593024  0.89534225    -0.26400
S826        S  0.96319540  0.87152363  0.89540546    -0.03600
C827        C  0.94835523  0.83898412  0.89143634    -0.17000
C828        C  0.96299660  0.81492990  0.89127663    -0.15000
H829        H  0.00424693  0.78153287  0.89022025     0.20300
H830        H  0.01380630  0.88892305  0.89896578     0.16400
H831        H  0.06078931  0.87820356  0.89665556     0.18900
H832        H  0.95683928  0.79280698  0.88834542     0.12200
C833        C  0.38089602  0.51686052  0.05114426     0.16100
C834        C  0.37978772  0.48655073  0.05309799    -0.32900
C835        C  0.38010788  0.47137108  0.00787056     0.20500
C836        C  0.38203355  0.48567584  0.96280876     0.02700
C837        C  0.38325621  0.51591734  0.96090052    -0.22700
C838        C  0.38234052  0.53110590  0.00595757     0.11900
S839        S  0.37895222  0.53941581  0.10139254    -0.06300
C840        C  0.37947584  0.56830179  0.06093408    -0.09800
C841        C  0.38148663  0.56055083  0.01133953    -0.26400
S842        S  0.38088545  0.46356436  0.91202305    -0.03600
C843        C  0.37715506  0.43468627  0.95168521    -0.17000
C844        C  0.37733077  0.44208850  0.00171864    -0.15000
H845        H  0.37796938  0.47534589  0.08820659     0.20300
H846        H  0.38407754  0.52717227  0.92569440     0.16400
H847        H  0.38146715  0.57566469  0.98065760     0.18900
H848        H  0.37453309  0.42699574  0.03193049     0.12200
C849        C  0.25159897  0.77338477  0.97110711     0.16100
C850        C  0.27556268  0.77084708  0.98364868    -0.32900
C851        C  0.28179022  0.74826651  0.01542969     0.20500
C852        C  0.26494542  0.72887051  0.03336256     0.02700
C853        C  0.24101972  0.73128276  0.02054639    -0.22700
C854        C  0.23476359  0.75398866  0.98909173     0.11900
S855        S  0.24022702  0.80083363  0.93692012    -0.06300
C856        C  0.21247500  0.78625502  0.94765211    -0.09800
C857        C  0.21223108  0.76101206  0.97503743    -0.26400
S858        S  0.27614688  0.70209774  0.06927075    -0.03600
C859        C  0.30385478  0.71708351  0.05980206    -0.17000
C860        C  0.30421847  0.74179973  0.03100794    -0.15000
H861        H  0.28870605  0.78603577  0.96981427     0.20300
H862        H  0.22784608  0.71624369  0.03474059     0.16400
H863        H  0.19633491  0.74978682  0.98736045     0.18900
H864        H  0.32014381  0.75320242  0.01936507     0.10600
C865        C  0.26739261  0.61832698  0.21639821     0.16100
C866        C  0.24273858  0.61672569  0.22397395    -0.32900
C867        C  0.23417077  0.61866476  0.27291197     0.20500
C868        C  0.24949413  0.62151052  0.31270014     0.02700
C869        C  0.27416801  0.62323003  0.30510853    -0.22700
C870        C  0.28271700  0.62181780  0.25603800     0.11900
S871        S  0.28114398  0.61781295  0.15967778    -0.06300
C872        C  0.30787235  0.62283199  0.18939116    -0.09800
C873        C  0.30597443  0.62457046  0.24076119    -0.26400
S874        S  0.23550647  0.62448319  0.36899935    -0.03600
C875        C  0.20869694  0.62259788  0.33854913    -0.17000
C876        C  0.21075310  0.61939297  0.28747503    -0.15000
H877        H  0.23071929  0.61472897  0.19294226     0.20300
H878        H  0.28613546  0.62620190  0.33600305     0.16400
H879        H  0.32073446  0.62842910  0.26549136     0.18900
H880        H  0.19590404  0.61874194  0.26215436     0.12200
C881        C  0.62972690  0.51599044  0.03702231     0.16100
C882        C  0.62977990  0.48570492  0.03937828    -0.32900
C883        C  0.62736982  0.47031532  0.99473908     0.20500
C884        C  0.62435831  0.48437556  0.94981745     0.02700
C885        C  0.62406892  0.51470395  0.94752030    -0.22700
C886        C  0.62719686  0.53012367  0.99201381     0.11900
S887        S  0.63435511  0.53849167  0.08644052    -0.06300
C888        C  0.63358124  0.56730393  0.04597478    -0.09800
C889        C  0.62943621  0.55957952  0.99691307    -0.26400
S890        S  0.62315645  0.46171293  0.89957533    -0.03600
C891        C  0.62739619  0.43303152  0.93935890    -0.17000
C892        C  0.62904106  0.44093058  0.98899346    -0.15000
H893        H  0.63246302  0.47461805  0.07426979     0.20300
H894        H  0.62239058  0.52579502  0.91234548     0.16400
H895        H  0.62884890  0.57465758  0.96622150     0.18900
H896        H  0.63235170  0.42604211  0.01914710     0.12200
C897        C  0.73247148  0.75603427  0.00016402     0.16100
C898        C  0.74474263  0.77935383  0.97885724    -0.32900
C899        C  0.76829854  0.77469973  0.96365199     0.20500
C900        C  0.77921197  0.74812820  0.96943113     0.02700
C901        C  0.76695132  0.72486024  0.99066443    -0.22700
C902        C  0.74345516  0.72950489  0.00588621     0.11900
S903        S  0.70349279  0.75671209  0.01947741    -0.06300
C904        C  0.70630805  0.72081965  0.03504128    -0.09800
C905        C  0.72861321  0.70933487  0.02621197    -0.26400
S906        S  0.80826524  0.74728463  0.95103873    -0.03600
C907        C  0.80576026  0.78319632  0.93570956    -0.17000
C908        C  0.78340384  0.79485159  0.94386675    -0.15000
H909        H  0.73633726  0.80017843  0.97436669     0.20300
H910        H  0.77539120  0.70407192  0.99537552     0.16400
H911        H  0.73346066  0.68701385  0.03247790     0.18900
H912        H  0.77879493  0.81729058  0.93807903     0.12200
C913        C  0.76675333  0.62195122  0.28757884     0.16100
C914        C  0.74217588  0.62311253  0.28025429    -0.32900
C915        C  0.73387140  0.62140357  0.23142734     0.20500
C916        C  0.74928184  0.61814979  0.19149136     0.02700
C917        C  0.77397720  0.61703566  0.19881712    -0.22700
C918        C  0.78234736  0.61933052  0.24777936     0.11900
S919        S  0.78014751  0.62509761  0.34389749    -0.06300
C920        C  0.80720772  0.62350681  0.31384904    -0.09800
C921        C  0.80569539  0.62042409  0.26262663    -0.26400
S922        S  0.73546169  0.61757750  0.13502491    -0.03600
C923        C  0.70875201  0.62239640  0.16567060    -0.17000
C924        C  0.71069464  0.62386631  0.21690018    -0.15000
H925        H  0.73005787  0.62591489  0.31125407     0.20300
H926        H  0.78613332  0.61518174  0.16767880     0.16400
H927        H  0.82081035  0.61975685  0.23759625     0.18900
H928        H  0.69597985  0.62757984  0.24217599     0.12200
C929        C  0.52681937  0.64972848  0.11813652     0.16100
C930        C  0.50419103  0.63733699  0.12344735    -0.32900
C931        C  0.48451867  0.65545072  0.11768054     0.20500
C932        C  0.48725164  0.68455272  0.10670447     0.02700
C933        C  0.50988104  0.69689312  0.10102847    -0.22700
C934        C  0.52956242  0.67883808  0.10721354     0.11900
S935        S  0.55286362  0.63156692  0.12493967    -0.06300
C936        C  0.56766379  0.66354887  0.11318327    -0.09800
C937        C  0.55299749  0.68691340  0.10422434    -0.26400
S938        S  0.46121029  0.70300666  0.10215655    -0.03600
C939        C  0.44644784  0.67122857  0.11546104    -0.17000
C940        C  0.46111001  0.64763335  0.12262122    -0.15000
H941        H  0.50202240  0.61464834  0.13223795     0.20300
H942        H  0.51205113  0.71964147  0.09272038     0.16400
H943        H  0.55913962  0.70862946  0.09622119     0.18900
H944        H  0.45498773  0.62601821  0.13147712     0.12200
C945        C  0.62235929  0.02719573  0.49413426     0.16100
C946        C  0.62057314  0.00590045  0.53111471    -0.32900
C947        C  0.62708470  0.97758522  0.51847979     0.20500
C948        C  0.63446686  0.97069222  0.47072805     0.02700
C949        C  0.63561159  0.99182438  0.43337447    -0.22700
C950        C  0.62959968  0.02026658  0.44629672     0.11900
S951        S  0.61857638  0.06332129  0.50401942    -0.06300
C952        C  0.62689978  0.06928252  0.44314338    -0.09800
C953        C  0.63186366  0.04431445  0.41658411    -0.26400
S954        S  0.64347418  0.93576492  0.46379391    -0.03600
C955        C  0.63756368  0.93034248  0.52606845    -0.17000
C956        C  0.62863011  0.95444385  0.55036416    -0.15000
H957        H  0.61544543  0.01144270  0.56872831     0.20300
H958        H  0.64194932  0.98656914  0.39643486     0.16400
H959        H  0.63848993  0.04395860  0.37875531     0.18900
H960        H  0.62444238  0.95533555  0.58962313     0.12200
C961        C  0.76666701  0.73544173  0.45478099     0.16100
C962        C  0.74245317  0.73756097  0.46605461    -0.32900
C963        C  0.73586986  0.75602361  0.50484851     0.20500
C964        C  0.75261747  0.77199160  0.53074266     0.02700
C965        C  0.77681367  0.77000657  0.51927073    -0.22700
C966        C  0.78341751  0.75137646  0.48074314     0.11900
S967        S  0.77835814  0.71187453  0.41294187    -0.06300
C968        C  0.80610703  0.72323492  0.43132064    -0.09800
C969        C  0.80615068  0.74487119  0.46667904    -0.26400
S970        S  0.74097004  0.79483184  0.57382129    -0.03600
C971        C  0.71322661  0.78290591  0.55648902    -0.17000
C972        C  0.71317356  0.76184919  0.52008411    -0.15000
H973        H  0.72936121  0.72506518  0.44595145     0.20300
H974        H  0.78991780  0.78234296  0.53962374     0.16400
H975        H  0.82189663  0.75317574  0.48474768     0.18900
H976        H  0.69737441  0.75331067  0.50253656     0.12200
C977        C  0.73592535  0.89222073  0.74217801     0.16100
C978        C  0.74915377  0.89411963  0.78612011    -0.32900
C979        C  0.77393697  0.89128544  0.78250762     0.20500
C980        C  0.78505645  0.88720338  0.73697974     0.02700
C981        C  0.77187303  0.88583668  0.69293874    -0.22700
C982        C  0.74706353  0.88826573  0.69663930     0.11900
S983        S  0.70560443  0.89203398  0.73942635    -0.06300
C984        C  0.70783237  0.88657309  0.67620183    -0.09800
C985        C  0.73105100  0.88529933  0.65856465    -0.26400
S986        S  0.81498796  0.88190985  0.74074315    -0.03600
C987        C  0.81259923  0.88490686  0.80445339    -0.17000
C988        C  0.78967328  0.89021709  0.82137008    -0.15000
H989        H  0.74042267  0.89659018  0.82179490     0.20300
H990        H  0.78051194  0.88198524  0.65753171     0.16400
H991        H  0.73593948  0.88072172  0.62042304     0.18900
H992        H  0.78459275  0.89170201  0.86012513     0.12200
C993        C  0.64213306  0.71698734  0.85125484     0.16100
C994        C  0.65004319  0.72567925  0.80415937    -0.32900
C995        C  0.64347427  0.75320576  0.78758017     0.20500
C996        C  0.62959361  0.77141089  0.81638395     0.02700
C997        C  0.62146850  0.76259623  0.86344808    -0.22700
C998        C  0.62803257  0.73495822  0.88004606     0.11900
S999        S  0.64997718  0.68546408  0.87964883    -0.06300
C1000       C  0.63407964  0.69643320  0.93107520    -0.09800
C1001       C  0.62306218  0.72307328  0.92563503    -0.26400
S1002       S  0.62361192  0.80397207  0.78891147    -0.03600
C1003       C  0.63979924  0.79268831  0.73795211    -0.17000
C1004       C  0.64938788  0.76527342  0.74279856    -0.15000
H1005       H  0.66116913  0.71175539  0.78168463     0.20300
H1006       H  0.61073341  0.77674662  0.88632311     0.16400
H1007       H  0.61348553  0.73418212  0.95490057     0.18900
H1008       H  0.65975240  0.75440805  0.71444414     0.12200
C1009       C  0.63066395  0.76536157  0.37685005     0.16100
C1010       C  0.62253587  0.74229915  0.34766559    -0.32900
C1011       C  0.63443707  0.73685532  0.30279643     0.20500
C1012       C  0.65327668  0.75407749  0.28721023     0.02700
C1013       C  0.66155306  0.77701458  0.31666010    -0.22700
C1014       C  0.64992717  0.78211331  0.36206664     0.11900
S1015       S  0.61929820  0.77430364  0.43344673    -0.06300
C1016       C  0.64111873  0.80043003  0.43836540    -0.09800
C1017       C  0.65607447  0.80233152  0.39731317    -0.26400
S1018       S  0.66460817  0.74481213  0.23054380    -0.03600
C1019       C  0.64409995  0.71706473  0.22824642    -0.17000
C1020       C  0.62928172  0.71528101  0.26941261    -0.15000
H1021       H  0.60774605  0.72895708  0.35973566     0.20300
H1022       H  0.67651774  0.79014378  0.30486594     0.16400
H1023       H  0.67124100  0.81670525  0.39441492     0.18900
H1024       H  0.61501547  0.69971294  0.27385128     0.12200
C1025       C  0.38174828  0.98920273  0.54737901     0.16100
C1026       C  0.38074861  0.01951911  0.54894651    -0.32900
C1027       C  0.38014420  0.03448590  0.50354333     0.20500
C1028       C  0.38125269  0.01999389  0.45855839     0.02700
C1029       C  0.38243194  0.98971493  0.45700381    -0.22700
C1030       C  0.38228934  0.97471524  0.50235370     0.11900
S1031       S  0.38053713  0.96692927  0.59813575    -0.06300
C1032       C  0.38003704  0.93777238  0.55826688    -0.09800
C1033       C  0.38130025  0.94526716  0.50836946    -0.26400
S1034       S  0.37915107  0.04195203  0.40766032    -0.03600
C1035       C  0.37599081  0.07095156  0.44728396    -0.17000
C1036       C  0.37711054  0.06371004  0.49730154    -0.15000
H1037       H  0.37959581  0.03088717  0.58400715     0.20300
H1038       H  0.38256163  0.97828720  0.42192689     0.16400
H1039       H  0.38061744  0.92997832  0.47797025     0.18900
H1040       H  0.37491003  0.07889826  0.52755117     0.12200
C1041       C  0.38903573  0.76634755  0.82214179     0.16100
C1042       C  0.39600333  0.75783497  0.86982997    -0.32900
C1043       C  0.38682274  0.73176343  0.88865544     0.20500
C1044       C  0.37137501  0.71478265  0.86132060     0.02700
C1045       C  0.36481863  0.72297574  0.81302051    -0.22700
C1046       C  0.37397944  0.74916596  0.79418191     0.11900
S1047       S  0.39734672  0.79793436  0.79383797    -0.06300
C1048       C  0.38063113  0.78790376  0.74328099    -0.09800
C1049       C  0.36926934  0.76131101  0.74865565    -0.26400
S1050       S  0.36039889  0.68546544  0.89320261    -0.03600
C1051       C  0.37688121  0.69619403  0.94382615    -0.17000
C1052       C  0.39032090  0.72100189  0.93546636    -0.15000
H1053       H  0.40763647  0.77132852  0.89184706     0.20300
H1054       H  0.35262289  0.70991565  0.79158507     0.16400
H1055       H  0.35800339  0.75150740  0.72086666     0.18900
H1056       H  0.40090531  0.73177067  0.96339906     0.12200
C1057       C  0.37108367  0.79140616  0.36181246     0.16100
C1058       C  0.36270692  0.78247522  0.31523963    -0.32900
C1059       C  0.37164797  0.75655572  0.29555621     0.20500
C1060       C  0.38820948  0.74031698  0.32108154     0.02700
C1061       C  0.39690638  0.74952989  0.36709688    -0.22700
C1062       C  0.38796096  0.77537451  0.38677598     0.11900
S1063       S  0.36072909  0.82048476  0.39451616    -0.06300
C1064       C  0.37933800  0.81091862  0.44235652    -0.09800
C1065       C  0.39303420  0.78669979  0.43253950    -0.26400
S1066       S  0.39626401  0.70905812  0.29194852    -0.03600
C1067       C  0.37737935  0.71802433  0.24437738    -0.17000
C1068       C  0.36547519  0.74395321  0.25125493    -0.15000
H1069       H  0.34938250  0.79480008  0.29578141     0.20300
H1070       H  0.40971336  0.73676132  0.38722763     0.16400
H1071       H  0.40475831  0.77658886  0.45902604     0.18900
H1072       H  0.35300651  0.75308236  0.22522350     0.12200
C1073       C  0.49058562  0.85625356  0.61287012     0.16100
C1074       C  0.51332738  0.86857063  0.61511038    -0.32900
C1075       C  0.53280895  0.85028927  0.60763849     0.20500
C1076       C  0.52980589  0.82110163  0.59775574     0.02700
C1077       C  0.50704234  0.80886835  0.59475414    -0.22700
C1078       C  0.48755582  0.82708096  0.60288777     0.11900
S1079       S  0.46477092  0.87449841  0.62330184    -0.06300
C1080       C  0.44968262  0.84246204  0.61443010    -0.09800
C1081       C  0.46408555  0.81904557  0.60352124    -0.26400
S1082       S  0.55571948  0.80234911  0.59207685    -0.03600
C1083       C  0.57075716  0.83413277  0.60350126    -0.17000
C1084       C  0.55628656  0.85794688  0.61061461    -0.15000
H1085       H  0.51574383  0.89128487  0.62336854     0.20300
H1086       H  0.50464051  0.78603789  0.58749015     0.16400
H1087       H  0.45774829  0.79725692  0.59703959     0.18900
H1088       H  0.56259387  0.87956199  0.61873144     0.12200
C1089       C  0.28354531  0.74953735  0.51945035     0.16100
C1090       C  0.27125588  0.72740805  0.49508183    -0.32900
C1091       C  0.24714758  0.73190056  0.48509593     0.20500
C1092       C  0.23574662  0.75724801  0.49856348     0.02700
C1093       C  0.24801457  0.77931989  0.52294469    -0.22700
C1094       C  0.27206144  0.77479201  0.53307651     0.11900
S1095       S  0.31312008  0.74899303  0.53318028    -0.06300
C1096       C  0.30988690  0.78324048  0.55714335    -0.09800
C1097       C  0.28702435  0.79407177  0.55505523    -0.26400
S1098       S  0.20623917  0.75809539  0.48473635    -0.03600
C1099       C  0.20922579  0.72375187  0.46121662    -0.17000
C1100       C  0.23201489  0.71263164  0.46338348    -0.15000
H1101       H  0.28007393  0.70760090  0.48434626     0.20300
H1102       H  0.23920131  0.79913832  0.53364774     0.16400
H1103       H  0.28184436  0.81552699  0.56687181     0.18900
H1104       H  0.23701892  0.69111118  0.45159657     0.12200
C1105       C  0.26860943  0.88695807  0.71305734     0.16100
C1106       C  0.24394689  0.88920226  0.71993599    -0.32900
C1107       C  0.23501539  0.88736782  0.76862334     0.20500
C1108       C  0.25004791  0.88401037  0.80875074     0.02700
C1109       C  0.27469739  0.88158234  0.80184689    -0.22700
C1110       C  0.28358747  0.88291055  0.75308107     0.11900
S1111       S  0.28275615  0.88737761  0.65679698    -0.06300
C1112       C  0.30913454  0.88147134  0.68726250    -0.09800
C1113       C  0.30687354  0.87962991  0.73851597    -0.26400
S1114       S  0.23575009  0.88163771  0.86470163    -0.03600
C1115       C  0.20914560  0.88456706  0.83378969    -0.17000
C1116       C  0.21148950  0.88747095  0.78270447    -0.15000
H1117       H  0.23219326  0.89168725  0.68859249     0.20300
H1118       H  0.28638606  0.87823882  0.83305849     0.16400
H1119       H  0.32137552  0.87537010  0.76363940     0.18900
H1120       H  0.19676880  0.88869739  0.75714399     0.12200
loop_ 
_geom_bond_atom_site_label_1 
_geom_bond_atom_site_label_2 
_geom_bond_distance 
_geom_bond_site_symmetry_2 
_ccdc_geom_bond_type 
O1           C16   1.270       .  A
O1           Al9   1.934       .  S
C2           O12   1.266       .  A
C2            O3   1.264       .  A
C2         C1112   1.477       .  S
O3           Al5   1.905       .  S
O4            C6   1.265       .  A
O4           Al5   1.941       .  S
Al5          O13   1.952       .  S
Al5          O15   1.889       .  S
Al5          O14   1.782       .  S
C6           O19   1.258       .  A
C6         C1048   1.482       .  S
O7           C17   1.266       .  A
O7           Al9   1.932       .  S
O8           C21   1.262       .  A
O8          Al18   1.924       .  S
Al9          O22   1.894       .  S
Al9          O19   1.899       .  S
Al9          O14   1.780       .  S
O10          C17   1.258       .  A
O10         Al18   1.872       .  S
O11          C20   1.260       .  A
O11         Al18   1.896       .  S
O12         Al18   1.930       .  S
O13          C20   1.269       .  A
O14         Al18   1.776       .  S
O15          C16   1.263       .  A
C16        C1080   1.472       .  S
C17        C1096   1.465       .  S
C20        C1032   1.481       .  S
C21          O22   1.259       .  A
C21        C1064   1.476       .  S
O23          C38   1.256       .  A
O23         Al31   1.873       .  S
C24          O34   1.260       .  A
C24          O25   1.268       .  A
C24         C984   1.480       .  S
O25         Al27   1.940       .  S
O26          C28   1.252       .  A
O26         Al27   1.867       .  S
Al27         O35   1.883       .  S
Al27         O37   1.961       .  S
Al27         O36   1.774       .  S
C28          O41   1.265       .  A
C28         C971   1.458       .  S
O29          C39   1.259       .  A
O29         Al31   1.880       .  S
O30          C43   1.262       .  A
O30         Al40   1.893       .  S
Al31         O44   1.927       .  S
Al31         O41   1.940       .  S
Al31         O36   1.774       .  S
O32          C39   1.269       .  A
O32         Al40   1.953       .  S
O33          C42   1.270       .  A
O33         Al40   1.951       .  S
O34         Al40   1.893       .  S
O35          C42   1.259       .  A
O36         Al40   1.779       .  S
O37          C38   1.270       .  A
C38        C1016   1.476       .  S
C39        C1003   1.477       .  S
C42         C955   1.479       .  S
C43          O44   1.266       .  A
C43        C1083   1.471       .  S
O45          C60   1.270       .  A
O45         Al53   1.941       .  S
C46          O56   1.268       .  A
C46          O47   1.262       .  A
C46         C923   1.477       .  S
O47         Al49   1.889       .  S
O48          C50   1.266       .  A
O48         Al49   1.948       .  S
Al49         O57   1.945       .  S
Al49         O59   1.881       .  S
Al49         O58   1.782       .  S
C50          O63   1.254       .  A
C50        C1019   1.473       .  S
O51          C61   1.266       .  A
O51         Al53   1.932       .  S
O52          C65   1.265       .  A
O52         Al62   1.931   1_556  S
Al53         O66   1.887       .  S
Al53         O63   1.881       .  S
Al53         O58   1.778       .  S
O54          C61   1.258       .  A
O54         Al62   1.873       .  S
O55          C64   1.261       .  A
O55         Al62   1.900       .  S
O56         Al62   1.942       .  S
O57          C64   1.268       .  A
O58         Al62   1.775       .  S
O59          C60   1.261       .  A
C60         C936   1.472       .  S
C61         C904   1.466       .  S
C64         C888   1.479       .  S
C65          O66   1.258   1_556  A
C65        C1000   1.474       .  S
O67          C82   1.258   1_554  A
O67         Al75   1.887       .  S
C68          O78   1.264       .  A
C68          O69   1.270       .  A
C68         C872   1.478       .  S
O69         Al71   1.939       .  S
O70          C72   1.253       .  A
O70         Al71   1.863       .  S
Al71         O79   1.896       .  S
Al71         O81   1.945       .  S
Al71         O80   1.773       .  S
C72          O85   1.265       .  A
C72         C859   1.459       .  S
O73          C83   1.258       .  A
O73         Al75   1.901       .  S
O74          C87   1.266       .  A
O74         Al84   1.897       .  S
Al75         O88   1.929       .  S
Al75         O85   1.932       .  S
Al75         O80   1.776       .  S
O76          C83   1.263       .  A
O76         Al84   1.931       .  S
O77          C86   1.266       .  A
O77         Al84   1.944       .  S
O78         Al84   1.902       .  S
O79          C86   1.260       .  A
O80         Al84   1.783       .  S
O81          C82   1.266   1_554  A
C82        C1051   1.482       .  S
C83        C1067   1.476       .  S
C86         C840   1.477       .  S
C87          O88   1.270       .  A
C87         C939   1.471       .  S
O89         C104   1.267       .  A
O89         Al97   1.930       .  S
C90         O100   1.266       .  A
C90          O91   1.263       .  A
C90        C1115   1.476       .  S
O91         Al93   1.906       .  S
O92          C94   1.267       .  A
O92         Al93   1.950       .  S
Al93        O101   1.953       .  S
Al93        O103   1.903       .  S
Al93        O102   1.778       .  S
C94         O107   1.254       .  A
C94         C792   1.462       .  S
O95         C105   1.266       .  A
O95         Al97   1.937       .  S
O96         C109   1.267       .  A
O96        Al106   1.939   1_554  S
Al97        O110   1.879       .  S
Al97        O107   1.868       .  S
Al97        O102   1.769       .  S
O98         C105   1.254       .  A
O98        Al106   1.870       .  S
O99         C108   1.260       .  A
O99        Al106   1.884       .  S
O100       Al106   1.926       .  S
O101        C108   1.271       .  A
O102       Al106   1.770       .  S
O103        C104   1.265       .  A
C104        C824   1.474       .  S
C105        C856   1.459       .  S
C108        C779   1.476       .  S
C109        O110   1.257   1_554  A
C109        C808   1.468       .  S
O111        C126   1.258   1_556  A
O111       Al119   1.877       .  S
C112        O122   1.260       .  A
C112        O113   1.270       .  A
C112        C987   1.480       .  S
O113       Al115   1.948       .  S
O114        C116   1.256       .  A
O114       Al115   1.873       .  S
Al115       O123   1.881       .  S
Al115       O125   1.943       .  S
Al115       O124   1.775       .  S
C116        O129   1.266       .  A
C116        C907   1.467       .  S
O117        C127   1.257       .  A
O117       Al119   1.882       .  S
O118        C131   1.260       .  A
O118       Al128   1.882       .  S
Al119       O132   1.948       .  S
Al119       O129   1.936       .  S
Al119       O124   1.775       .  S
O120        C127   1.268       .  A
O120       Al128   1.953       .  S
O121        C130   1.269       .  A
O121       Al128   1.953       .  S
O122       Al128   1.886       .  S
O123        C130   1.256       .  A
O124       Al128   1.778       .  S
O125        C126   1.267   1_556  A
C126        C760   1.472       .  S
C127        C747   1.476       .  S
C130        C728   1.476       .  S
C131        O132   1.270       .  A
C131        C827   1.474       .  S
O133        C148   1.269       .  A
O133       Al141   1.937       .  S
C134        O144   1.265       .  A
C134        O135   1.261       .  A
C134        C920   1.476       .  S
O135       Al137   1.906       .  S
O136        C138   1.265       .  A
O136       Al137   1.936       .  S
Al137       O145   1.952       .  S
Al137       O147   1.889       .  S
Al137       O146   1.781       .  S
C138        O151   1.256       .  A
C138        C763   1.472       .  S
O139        C149   1.268       .  A
O139       Al141   1.940       .  S
O140        C153   1.264       .  A
O140       Al150   1.934       .  S
Al141       O154   1.893       .  S
Al141       O151   1.881       .  S
Al141       O146   1.777       .  S
O142        C149   1.255       .  A
O142       Al150   1.868       .  S
O143        C152   1.260       .  A
O143       Al150   1.886       .  S
O144       Al150   1.928       .  S
O145        C152   1.271       .  A
O146       Al150   1.771       .  S
O147        C148   1.262       .  A
C148        C715   1.475       .  S
C149        C968   1.458       .  S
C152        C699   1.473       .  S
C153        O154   1.259       .  A
C153        C744   1.477       .  S
O155        C170   1.258       .  A
O155       Al163   1.885       .  S
C156        O166   1.261       .  A
C156        O157   1.266       .  A
C156        C875   1.476       .  S
O157       Al159   1.930       .  S
O158        C160   1.256       .  A
O158       Al159   1.877       .  S
Al159       O167   1.882       .  S
Al159       O169   1.928       .  S
Al159       O168   1.772       .  S
C160        O173   1.265       .  A
C160       C1099   1.464       .  S
O161        C171   1.256       .  A
O161       Al163   1.877       .  S
O162        C175   1.264       .  A
O162       Al172   1.899       .  S
Al163       O176   1.930       .  S
Al163       O173   1.933       .  S
Al163       O168   1.773       .  S
O164        C171   1.268       .  A
O164       Al172   1.944       .  S
O165        C174   1.269       .  A
O165       Al172   1.948       .  S
O166       Al172   1.897       .  S
O167        C174   1.257       .  A
O168       Al172   1.779       .  S
O169        C170   1.266       .  A
C170        C795   1.467       .  S
C171        C811   1.464       .  S
C174        C683   1.473       .  S
C175        O176   1.266       .  A
C175        C712   1.475       .  S
O177        C192   1.269       .  A
O177       Al185   1.945       .  S
C178        O188   1.270       .  A
C178        O179   1.259       .  A
C178        C616   1.477       .  S
O179       Al181   1.882       .  S
O180        C182   1.269       .  A
O180       Al181   1.954       .  S
Al181       O189   1.951       .  S
Al181       O191   1.877       .  S
Al181       O190   1.777       .  S
C182        O195   1.255       .  A
C182        C632   1.467       .  S
O183        C193   1.267       .  A
O183       Al185   1.950       .  S
O184        C197   1.271   1_556  A
O184       Al194   1.958       .  S
Al185       O198   1.877       .  S
Al185       O195   1.870       .  S
Al185       O190   1.776       .  S
O186        C193   1.254       .  A
O186       Al194   1.862       .  S
O187        C196   1.261       .  A
O187       Al194   1.890       .  S
O188       Al194   1.948       .  S
O189        C196   1.270       .  A
O190       Al194   1.771       .  S
O191        C192   1.259       .  A
C192        C664   1.471       .  S
C193        C600   1.462       .  S
C196        C891   1.480       .  S
C197        O198   1.257   1_554  A
C197        C648   1.477       .  S
O199        C214   1.259   1_556  A
O199       Al207   1.882       .  S
C200        O210   1.261       .  A
C200        O201   1.269       .  A
C200        C584   1.473       .  S
O201       Al203   1.936       .  S
O202        C204   1.256       .  A
O202       Al203   1.880       .  S
Al203       O211   1.892       .  S
Al203       O213   1.939   1_556  S
Al203       O212   1.778       .  S
C204        O217   1.263       .  A
C204        C568   1.465       .  S
O205        C215   1.257       .  A
O205       Al207   1.887       .  S
O206        C219   1.263       .  A
O206       Al216   1.893       .  S
Al207       O220   1.931       .  S
Al207       O217   1.921       .  S
Al207       O212   1.773       .  S
O208        C215   1.268       .  A
O208       Al216   1.951       .  S
O209        C218   1.267       .  A
O209       Al216   1.942       .  S
O210       Al216   1.885       .  S
O211        C218   1.258       .  A
O212       Al216   1.782       .  S
O213        C214   1.268       .  A
C214        C552   1.472       .  S
C215        C536   1.473       .  S
C218        C843   1.478       .  S
C219        O220   1.267       .  A
C219        C667   1.472       .  S
O221        C236   1.266       .  A
O221       Al229   1.933       .  S
C222        O232   1.269       .  A
C222        O223   1.261       .  A
C222        C504   1.480       .  S
O223       Al225   1.893       .  S
O224        C226   1.269       .  A
O224       Al225   1.953       .  S
Al225       O233   1.950       .  S
Al225       O235   1.897       .  S
Al225       O234   1.776       .  S
C226        O239   1.256       .  A
C226        C555   1.471       .  S
O227        C237   1.266       .  A
O227       Al229   1.934       .  S
O228        C241   1.270       .  A
O228       Al238   1.963       .  S
Al229       O242   1.877       .  S
Al229       O239   1.874       .  S
Al229       O234   1.771       .  S
O230        C237   1.255       .  A
O230       Al238   1.872       .  S
O231        C240   1.262       .  A
O231       Al238   1.896       .  S
O232       Al238   1.943       .  S
O233        C240   1.271       .  A
O234       Al238   1.777       .  S
O235        C236   1.263       .  A
C236        C488   1.476       .  S
C237        C520   1.458       .  S
C240       C1035   1.480       .  S
C241        O242   1.257       .  A
C241        C539   1.477       .  S
O243        C258   1.255       .  A
O243       Al251   1.876       .  S
C244        O254   1.263       .  A
C244        O245   1.269       .  A
C244        C459   1.476       .  S
O245       Al247   1.938       .  S
O246        C248   1.257       .  A
O246       Al247   1.875       .  S
Al247       O255   1.890       .  S
Al247       O257   1.939       .  S
Al247       O256   1.774       .  S
C248        O261   1.268       .  A
C248        C475   1.473       .  S
O249        C259   1.256       .  A
O249       Al251   1.880       .  S
O250        C263   1.262       .  A
O250       Al260   1.888       .  S
Al251       O264   1.945       .  S
Al251       O261   1.947       .  S
Al251       O256   1.773       .  S
O252        C259   1.268       .  A
O252       Al260   1.956       .  S
O253        C262   1.269       .  A
O253       Al260   1.954       .  S
O254       Al260   1.895       .  S
O255        C262   1.258       .  A
O256       Al260   1.781       .  S
O257        C258   1.266       .  A
C258        C635   1.470       .  S
C259        C651   1.475       .  S
C262        C952   1.476       .  S
C263        O264   1.270       .  A
C263        C491   1.476       .  S
O265        C280   1.270       .  A
O265       Al273   1.949       .  S
C266        O276   1.268       .  A
C266        O267   1.259       .  A
C266        C619   1.478       .  S
O267       Al269   1.888       .  S
O268        C270   1.269       .  A
O268       Al269   1.950       .  S
Al269       O277   1.954       .  S
Al269       O279   1.887       .  S
Al269       O278   1.778       .  S
C270        O283   1.258       .  A
C270        C427   1.476       .  S
O271        C281   1.269       .  A
O271       Al273   1.954       .  S
O272        C285   1.267       .  A
O272       Al282   1.947       .  S
Al273       O286   1.880       .  S
Al273       O283   1.881       .  S
Al273       O278   1.774       .  S
O274        C281   1.256       .  A
O274       Al282   1.871       .  S
O275        C284   1.258       .  A
O275       Al282   1.880       .  S
O276       Al282   1.942       .  S
O277        C284   1.270       .  A
O278       Al282   1.775       .  S
O279        C280   1.260       .  A
C280        C440   1.478       .  S
C281        C472   1.472       .  S
C284        C696   1.476       .  S
C285        O286   1.258       .  A
C285        C411   1.473       .  S
O287        C302   1.258       .  A
O287       Al295   1.879       .  S
C288        O298   1.263       .  A
C288        O289   1.265       .  A
C288        C587   1.474       .  S
O289       Al291   1.924       .  S
O290        C292   1.256       .  A
O290       Al291   1.875       .  S
Al291       O299   1.876       .  S
Al291       O301   1.936       .  S
Al291       O300   1.772       .  S
C292        O305   1.265       .  A
C292        C523   1.457       .  S
O293        C303   1.255       .  A
O293       Al295   1.876       .  S
O294        C307   1.264       .  A
O294       Al304   1.901       .  S
Al295       O308   1.930       .  S
Al295       O305   1.926       .  S
Al295       O300   1.772       .  S
O296        C303   1.270       .  A
O296       Al304   1.962       .  S
O297        C306   1.271       .  A
O297       Al304   1.961       .  S
O298       Al304   1.904       .  S
O299        C306   1.258       .  A
O300       Al304   1.780       .  S
O301        C302   1.265       .  A
C302        C376   1.469       .  S
C303        C392   1.474       .  S
C306        C680   1.476       .  S
C307        O308   1.267       .  A
C307        C443   1.476       .  S
O309        C324   1.268       .  A
O309       Al317   1.939       .  S
C310        O320   1.270       .  A
C310        O311   1.259       .  A
C310        C507   1.481       .  S
O311       Al313   1.888       .  S
O312        C314   1.267       .  A
O312       Al313   1.940       .  S
Al313       O321   1.949       .  S
Al313       O323   1.891       .  S
Al313       O322   1.780       .  S
C314        O327   1.257       .  A
C314        C379   1.471       .  S
O315        C325   1.266       .  A
O315       Al317   1.940       .  S
O316        C329   1.268   1_554  A
O316       Al326   1.950       .  S
Al317       O330   1.884       .  S
Al317       O327   1.878       .  S
Al317       O322   1.777       .  S
O318        C325   1.256       .  A
O318       Al326   1.868       .  S
O319        C328   1.259       .  A
O319       Al326   1.887       .  S
O320       Al326   1.949       .  S
O321        C328   1.268       .  A
O322       Al326   1.775       .  S
O323        C324   1.262       .  A
C324        C363   1.476       .  S
C325        C571   1.467       .  S
C328        C776   1.476       .  S
C329        O330   1.258   1_556  A
C329        C395   1.478       .  S
O331        C346   1.258   1_554  A
O331       Al339   1.884       .  S
C332        O342   1.261       .  A
C332        O333   1.267       .  A
C332        C456   1.476       .  S
O333       Al335   1.936       .  S
O334        C336   1.255       .  A
O334       Al335   1.873       .  S
Al335       O343   1.880       .  S
Al335       O345   1.944   1_554  S
Al335       O344   1.772       .  S
C336        O349   1.268       .  A
C336        C603   1.461       .  S
O337        C347   1.255       .  A
O337       Al339   1.881       .  S
O338        C351   1.262       .  A
O338       Al348   1.886       .  S
Al339       O352   1.945       .  S
Al339       O349   1.939       .  S
Al339       O344   1.774       .  S
O340        C347   1.268       .  A
O340       Al348   1.947       .  S
O341        C350   1.270       .  A
O341       Al348   1.956       .  S
O342       Al348   1.896       .  S
O343        C350   1.258       .  A
O344       Al348   1.780       .  S
O345        C346   1.267       .  A
C346        C424   1.476       .  S
C347        C408   1.470       .  S
C350        C731   1.475       .  S
C351        O352   1.269       .  A
C351        C360   1.477       .  S
C353        S359   1.715       .  A
C353        C358   1.386       .  A
C353        C354   1.407   1_655  A
C354        C355   1.408       .  A
C354        H365   1.083       .  S
C355        C364   1.376       .  A
C355        C356   1.387       .  A
C356        S362   1.704       .  A
C356        C357   1.399   1_455  A
C357        C358   1.400       .  A
C357        H366   1.083       .  S
C358        C361   1.368       .  A
S359        C360   1.726       .  A
C360        C361   1.386       .  A
C361        H367   1.083       .  S
S362        C363   1.722       .  A
C363        C364   1.390       .  A
C364        H368   1.083       .  S
C369        S375   1.712       .  A
C369        C374   1.386       .  A
C369        C370   1.402       .  A
C370        C371   1.405       .  A
C370        H381   1.083       .  S
C371        C380   1.368       .  A
C371        C372   1.387       .  A
C372        S378   1.709       .  A
C372        C373   1.399       .  A
C373        C374   1.402       .  A
C373        H382   1.083       .  S
C374        C377   1.365       .  A
S375        C376   1.723       .  A
C376        C377   1.386       .  A
C377        H383   1.083       .  S
S378        C379   1.721       .  A
C379        C380   1.389       .  A
C380        H384   1.083       .  S
C385        S391   1.706       .  A
C385        C390   1.387       .  A
C385        C386   1.405       .  A
C386        C387   1.404       .  A
C386        H397   1.083       .  S
C387        C396   1.377       .  A
C387        C388   1.387       .  A
C388        S394   1.705       .  A
C388        C389   1.405       .  A
C389        C390   1.403       .  A
C389        H398   1.083       .  S
C390        C393   1.377       .  A
S391        C392   1.726       .  A
C392        C393   1.387       .  A
C393        H399   1.083       .  S
S394        C395   1.726       .  A
C395        C396   1.389       .  A
C396        H400   1.083       .  S
C401        S407   1.707       .  A
C401        C406   1.387       .  A
C401        C402   1.405       .  A
C402        C403   1.404       .  A
C402        H413   1.083       .  S
C403        C412   1.375       .  A
C403        C404   1.387       .  A
C404        S410   1.701       .  A
C404        C405   1.400       .  A
C405        C406   1.400       .  A
C405        H414   1.083       .  S
C406        C409   1.372       .  A
S407        C408   1.725       .  A
C408        C409   1.384       .  A
C409        H415   1.083       .  S
S410        C411   1.724       .  A
C411        C412   1.389       .  A
C412        H416   1.083       .  S
C417        S423   1.713       .  A
C417        C422   1.386       .  A
C417        C418   1.403       .  A
C418        C419   1.405       .  A
C418        H429   1.083       .  S
C419        C428   1.370       .  A
C419        C420   1.386       .  A
C420        S426   1.713       .  A
C420        C421   1.402       .  A
C421        C422   1.405       .  A
C421        H430   1.083       .  S
C422        C425   1.370       .  A
S423        C424   1.724       .  A
C424        C425   1.389       .  A
C425        H431   1.083       .  S
S426        C427   1.723       .  A
C427        C428   1.389       .  A
C428        H432   1.083       .  S
C433        S439   1.706       .  A
C433        C438   1.387       .  A
C433        C434   1.402   1_655  A
C434        C435   1.402       .  A
C434        H445   1.083       .  S
C435        C444   1.373       .  A
C435        C436   1.387       .  A
C436        S442   1.709       .  A
C436        C437   1.405       .  A
C437        C438   1.405   1_455  A
C437        H446   1.083   1_455  S
C438        C441   1.376       .  A
S439        C440   1.725       .  A
C440        C441   1.389       .  A
C441        H447   1.083       .  S
S442        C443   1.725       .  A
C443        C444   1.387       .  A
C444        H448   1.083       .  S
C449        S455   1.709       .  A
C449        C454   1.387       .  A
C449        C450   1.403       .  A
C450        C451   1.404       .  A
C450        H461   1.083       .  S
C451        C460   1.373       .  A
C451        C452   1.387       .  A
C452        S458   1.710       .  A
C452        C453   1.404       .  A
C453        C454   1.405       .  A
C453        H462   1.083       .  S
C454        C457   1.374       .  A
S455        C456   1.723       .  A
C456        C457   1.389       .  A
C457        H463   1.083       .  S
S458        C459   1.724       .  A
C459        C460   1.388       .  A
C460        H464   1.083       .  S
C465        S471   1.713       .  A
C465        C470   1.386       .  A
C465        C466   1.401       .  A
C466        C467   1.405       .  A
C466        H477   1.083       .  S
C467        C476   1.368       .  A
C467        C468   1.386       .  A
C468        S474   1.711       .  A
C468        C469   1.400       .  A
C469        C470   1.403       .  A
C469        H478   1.083       .  S
C470        C473   1.366       .  A
S471        C472   1.722       .  A
C472        C473   1.389       .  A
C473        H479   1.083       .  S
S474        C475   1.722       .  A
C475        C476   1.389       .  A
C476        H480   1.083       .  S
C481        S487   1.712       .  A
C481        C486   1.386       .  A
C481        C482   1.406       .  A
C482        C483   1.406       .  A
C482        H493   1.083       .  S
C483        C492   1.376       .  A
C483        C484   1.387       .  A
C484        S490   1.704       .  A
C484        C485   1.401       .  A
C485        C486   1.401       .  A
C485        H494   1.083       .  S
C486        C489   1.371       .  A
S487        C488   1.726       .  A
C488        C489   1.386       .  A
C489        H495   1.083       .  S
S490        C491   1.723       .  A
C491        C492   1.390       .  A
C492        H496   1.083       .  S
C497        S503   1.710       .  A
C497        C502   1.387       .  A
C497        C498   1.406       .  A
C498        C499   1.405       .  A
C498        H509   1.083       .  S
C499        C508   1.378       .  A
C499        C500   1.387       .  A
C500        S506   1.709       .  A
C500        C501   1.406       .  A
C501        C502   1.405       .  A
C501        H510   1.083       .  S
C502        C505   1.377       .  A
S503        C504   1.726       .  A
C504        C505   1.390       .  A
C505        H511   1.083       .  S
S506        C507   1.727       .  A
C507        C508   1.389       .  A
C508        H512   1.083       .  S
C513        S519   1.701       .  A
C513        C518   1.388       .  A
C513        C514   1.397       .  A
C514        C515   1.398       .  A
C514        H525   1.083       .  S
C515        C524   1.364       .  A
C515        C516   1.388       .  A
C516        S522   1.701       .  A
C516        C517   1.397       .  A
C517        C518   1.398       .  A
C517        H526   1.083       .  S
C518        C521   1.365       .  A
S519        C520   1.722       .  A
C520        C521   1.382       .  A
C521        H527   1.083       .  S
S522        C523   1.721       .  A
C523        C524   1.382       .  A
C524        H528   1.083       .  S
C529        S535   1.708       .  A
C529        C534   1.387       .  A
C529        C530   1.406       .  A
C530        C531   1.406       .  A
C530        H541   1.083       .  S
C531        C540   1.379       .  A
C531        C532   1.387       .  A
C532        S538   1.701       .  A
C532        C533   1.402       .  A
C533        C534   1.401       .  A
C533        H542   1.083       .  S
C534        C537   1.374       .  A
S535        C536   1.726       .  A
C536        C537   1.385       .  A
C537        H543   1.083       .  S
S538        C539   1.725       .  A
C539        C540   1.390       .  A
C540        H544   1.083       .  S
C545        S551   1.703       .  A
C545        C550   1.387       .  A
C545        C546   1.402       .  A
C546        C547   1.402       .  A
C546        H557   1.083       .  S
C547        C556   1.374       .  A
C547        C548   1.387       .  A
C548        S554   1.704       .  A
C548        C549   1.402       .  A
C549        C550   1.402       .  A
C549        H558   1.083       .  S
C550        C553   1.373       .  A
S551        C552   1.725       .  A
C552        C553   1.387       .  A
C553        H559   1.083       .  S
S554        C555   1.725       .  A
C555        C556   1.385       .  A
C556        H560   1.083       .  S
C561        S567   1.705       .  A
C561        C566   1.387       .  A
C561        C562   1.397   1_556  A
C562        C563   1.399       .  A
C562        H573   1.083       .  S
C563        C572   1.362       .  A
C563        C564   1.386       .  A
C564        S570   1.711       .  A
C564        C565   1.401       .  A
C565        C566   1.403   1_554  A
C565        H574   1.083       .  S
C566        C569   1.367       .  A
S567        C568   1.720       .  A
C568        C569   1.387       .  A
C569        H575   1.083       .  S
S570        C571   1.722       .  A
C571        C572   1.386       .  A
C572        H576   1.084       .  S
C577        S583   1.709       .  A
C577        C582   1.387       .  A
C577        C578   1.403       .  A
C578        C579   1.404       .  A
C578        H589   1.083       .  S
C579        C588   1.374       .  A
C579        C580   1.387       .  A
C580        S586   1.706       .  A
C580        C581   1.402       .  A
C581        C582   1.403       .  A
C581        H590   1.083       .  S
C582        C585   1.371       .  A
S583        C584   1.723       .  A
C584        C585   1.388       .  A
C585        H591   1.083       .  S
S586        C587   1.724       .  A
C587        C588   1.387       .  A
C588        H592   1.083       .  S
C593        S599   1.695       .  A
C593        C598   1.388       .  A
C593        C594   1.396       .  A
C594        C595   1.396   1_556  A
C594        H605   1.083       .  S
C595        C604   1.366       .  A
C595        C596   1.388       .  A
C596        S602   1.705       .  A
C596        C597   1.403       .  A
C597        C598   1.403   1_554  A
C597        H606   1.083       .  S
C598        C601   1.373       .  A
S599        C600   1.721       .  A
C600        C601   1.386       .  A
C601        H607   1.083       .  S
S602        C603   1.725       .  A
C603        C604   1.380       .  A
C604        H608   1.083       .  S
C609        S615   1.707       .  A
C609        C614   1.387       .  A
C609        C610   1.404       .  A
C610        C611   1.403       .  A
C610        H621   1.083       .  S
C611        C620   1.375       .  A
C611        C612   1.387       .  A
C612        S618   1.708       .  A
C612        C613   1.405       .  A
C613        C614   1.405       .  A
C613        H622   1.083       .  S
C614        C617   1.377       .  A
S615        C616   1.725       .  A
C616        C617   1.388       .  A
C617        H623   1.083       .  S
S618        C619   1.726       .  A
C619        C620   1.388       .  A
C620        H624   1.083       .  S
C625        S631   1.702       .  A
C625        C630   1.387       .  A
C625        C626   1.401       .  A
C626        C627   1.401       .  A
C626        H637   1.083       .  S
C627        C636   1.372       .  A
C627        C628   1.387       .  A
C628        S634   1.702       .  A
C628        C629   1.402       .  A
C629        C630   1.401       .  A
C629        H638   1.083       .  S
C630        C633   1.373       .  A
S631        C632   1.723       .  A
C632        C633   1.385       .  A
C633        H639   1.083       .  S
S634        C635   1.725       .  A
C635        C636   1.386       .  A
C636        H640   1.083       .  S
C641        S647   1.704       .  A
C641        C646   1.387       .  A
C641        C642   1.405       .  A
C642        C643   1.404       .  A
C642        H653   1.083       .  S
C643        C652   1.377       .  A
C643        C644   1.387       .  A
C644        S650   1.705       .  A
C644        C645   1.404       .  A
C645        C646   1.403       .  A
C645        H654   1.083       .  S
C646        C649   1.376       .  A
S647        C648   1.728       .  A
C648        C649   1.387       .  A
C649        H655   1.083       .  S
S650        C651   1.724       .  A
C651        C652   1.388       .  A
C652        H656   1.083       .  S
C657        S663   1.701       .  A
C657        C662   1.387       .  A
C657        C658   1.399       .  A
C658        C659   1.399       .  A
C658        H669   1.083       .  S
C659        C668   1.368       .  A
C659        C660   1.387       .  A
C660        S666   1.709       .  A
C660        C661   1.404       .  A
C661        C662   1.405       .  A
C661        H670   1.083       .  S
C662        C665   1.374       .  A
S663        C664   1.722       .  A
C664        C665   1.388       .  A
C665        H671   1.083       .  S
S666        C667   1.725       .  A
C667        C668   1.385       .  A
C668        H672   1.083       .  S
C673        S679   1.702       .  A
C673        C678   1.387       .  A
C673        C674   1.402       .  A
C674        C675   1.401       .  A
C674        H685   1.083       .  S
C675        C684   1.373       .  A
C675        C676   1.387       .  A
C676        S682   1.707       .  A
C676        C677   1.405       .  A
C677        C678   1.405       .  A
C677        H686   1.083       .  S
C678        C681   1.377       .  A
S679        C680   1.725       .  A
C680        C681   1.388       .  A
C681        H687   1.083       .  S
S682        C683   1.726       .  A
C683        C684   1.385       .  A
C684        H688   1.083       .  S
C689        S695   1.704       .  A
C689        C694   1.387       .  A
C689        C690   1.403       .  A
C690        C691   1.402       .  A
C690        H701   1.083       .  S
C691        C700   1.374       .  A
C691        C692   1.387       .  A
C692        S698   1.707       .  A
C692        C693   1.404       .  A
C693        C694   1.404       .  A
C693        H702   1.083       .  S
C694        C697   1.377       .  A
S695        C696   1.725       .  A
C696        C697   1.388       .  A
C697        H703   1.083       .  S
S698        C699   1.725       .  A
C699        C700   1.386       .  A
C700        H704   1.083       .  S
C705        S711   1.709       .  A
C705        C710   1.387       .  A
C705        C706   1.404       .  A
C706        C707   1.404   1_455  A
C706        H717   1.083       .  S
C707        C716   1.374       .  A
C707        C708   1.387       .  A
C708        S714   1.706       .  A
C708        C709   1.401   1_655  A
C709        C710   1.402       .  A
C709        H718   1.083       .  S
C710        C713   1.372       .  A
S711        C712   1.725       .  A
C712        C713   1.386       .  A
C713        H719   1.083       .  S
S714        C715   1.723       .  A
C715        C716   1.388       .  A
C716        H720   1.083       .  S
C721        S727   1.705       .  A
C721        C726   1.387   1_554  A
C721        C722   1.404       .  A
C722        C723   1.403   1_565  A
C722        H733   1.083       .  S
C723        C732   1.376       .  A
C723        C724   1.387   1_554  A
C724        S730   1.704       .  A
C724        C725   1.403       .  A
C725        C726   1.402   1_545  A
C725        H734   1.083       .  S
C726        C729   1.376       .  A
S727        C728   1.726   1_554  A
C728        C729   1.387       .  A
C729        H735   1.083       .  S
S730        C731   1.725   1_556  A
C731        C732   1.387       .  A
C732        H736   1.083       .  S
C737        S743   1.711       .  A
C737        C742   1.386       .  A
C737        C738   1.403       .  A
C738        C739   1.405       .  A
C738        H749   1.083       .  S
C739        C748   1.371       .  A
C739        C740   1.386       .  A
C740        S746   1.713       .  A
C740        C741   1.403       .  A
C741        C742   1.405       .  A
C741        H750   1.083       .  S
C742        C745   1.372       .  A
S743        C744   1.725       .  A
C744        C745   1.389       .  A
C745        H751   1.083       .  S
S746        C747   1.723       .  A
C747        C748   1.389       .  A
C748        H752   1.083       .  S
C753        S759   1.714       .  A
C753        C758   1.386       .  A
C753        C754   1.403       .  A
C754        C755   1.405       .  A
C754        H765   1.083       .  S
C755        C764   1.369       .  A
C755        C756   1.387       .  A
C756        S762   1.710       .  A
C756        C757   1.400       .  A
C757        C758   1.402       .  A
C757        H766   1.083       .  S
C758        C761   1.366       .  A
S759        C760   1.723       .  A
C760        C761   1.387       .  A
C761        H767   1.083       .  S
S762        C763   1.721       .  A
C763        C764   1.389       .  A
C764        H768   1.083       .  S
C769        S775   1.706       .  A
C769        C774   1.387   1_556  A
C769        C770   1.404       .  A
C770        C771   1.403   1_545  A
C770        H781   1.083       .  S
C771        C780   1.375       .  A
C771        C772   1.387   1_556  A
C772        S778   1.707       .  A
C772        C773   1.404       .  A
C773        C774   1.404   1_565  A
C773        H782   1.083       .  S
C774        C777   1.376       .  A
S775        C776   1.725   1_556  A
C776        C777   1.388       .  A
C777        H783   1.083       .  S
S778        C779   1.726   1_554  A
C779        C780   1.387       .  A
C780        H784   1.083       .  S
C785        S791   1.699       .  A
C785        C790   1.388       .  A
C785        C786   1.397       .  A
C786        C787   1.398       .  A
C786        H797   1.083       .  S
C787        C796   1.366       .  A
C787        C788   1.387       .  A
C788        S794   1.706       .  A
C788        C789   1.403       .  A
C789        C790   1.403       .  A
C789        H798   1.083       .  S
C790        C793   1.373       .  A
S791        C792   1.721       .  A
C792        C793   1.385       .  A
C793        H799   1.083       .  S
S794        C795   1.725       .  A
C795        C796   1.384       .  A
C796        H800   1.083       .  S
C801        S807   1.703       .  A
C801        C806   1.387       .  A
C801        C802   1.401       .  A
C802        C803   1.401       .  A
C802        H813   1.083       .  S
C803        C812   1.371       .  A
C803        C804   1.388       .  A
C804        S810   1.703       .  A
C804        C805   1.401       .  A
C805        C806   1.401       .  A
C805        H814   1.083       .  S
C806        C809   1.370       .  A
S807        C808   1.724       .  A
C808        C809   1.386       .  A
C809        H815   1.083       .  S
S810        C811   1.722       .  A
C811        C812   1.384       .  A
C812        H816   1.083       .  S
C817        S823   1.709       .  A
C817        C822   1.387       .  A
C817        C818   1.405       .  A
C818        C819   1.405   1_455  A
C818        H829   1.083       .  S
C819        C828   1.376       .  A
C819        C820   1.387       .  A
C820        S826   1.703       .  A
C820        C821   1.401   1_655  A
C821        C822   1.401       .  A
C821        H830   1.083       .  S
C822        C825   1.372       .  A
S823        C824   1.726       .  A
C824        C825   1.386       .  A
C825        H831   1.083       .  S
S826        C827   1.723       .  A
C827        C828   1.388       .  A
C828        H832   1.083       .  S
C833        S839   1.713       .  A
C833        C838   1.386       .  A
C833        C834   1.405       .  A
C834        C835   1.406       .  A
C834        H845   1.083       .  S
C835        C844   1.374       .  A
C835        C836   1.386   1_554  A
C836        S842   1.710       .  A
C836        C837   1.402       .  A
C837        C838   1.403   1_556  A
C837        H846   1.083       .  S
C838        C841   1.372       .  A
S839        C840   1.725       .  A
C840        C841   1.387       .  A
C841        H847   1.083   1_554  S
S842        C843   1.723       .  A
C843        C844   1.391   1_556  A
C844        H848   1.083       .  S
C849        S855   1.700       .  A
C849        C854   1.388       .  A
C849        C850   1.399       .  A
C850        C851   1.399   1_556  A
C850        H861   1.083       .  S
C851        C860   1.368       .  A
C851        C852   1.388       .  A
C852        S858   1.699       .  A
C852        C853   1.398       .  A
C853        C854   1.398   1_554  A
C853        H862   1.083       .  S
C854        C857   1.367       .  A
S855        C856   1.722       .  A
C856        C857   1.382       .  A
C857        H863   1.083       .  S
S858        C859   1.722       .  A
C859        C860   1.383       .  A
C860        H864   1.083       .  S
C865        S871   1.709       .  A
C865        C870   1.387       .  A
C865        C866   1.403       .  A
C866        C867   1.404       .  A
C866        H877   1.083       .  S
C867        C876   1.374       .  A
C867        C868   1.387       .  A
C868        S874   1.710       .  A
C868        C869   1.405       .  A
C869        C870   1.405       .  A
C869        H878   1.083       .  S
C870        C873   1.376       .  A
S871        C872   1.724       .  A
C872        C873   1.390       .  A
C873        H879   1.083       .  S
S874        C875   1.725       .  A
C875        C876   1.388       .  A
C876        H880   1.083       .  S
C881        S887   1.711       .  A
C881        C886   1.386   1_554  A
C881        C882   1.403       .  A
C882        C883   1.405   1_554  A
C882        H893   1.083       .  S
C883        C892   1.373       .  A
C883        C884   1.386       .  A
C884        S890   1.714       .  A
C884        C885   1.406       .  A
C885        C886   1.407       .  A
C885        H894   1.083       .  S
C886        C889   1.375       .  A
S887        C888   1.724       .  A
C888        C889   1.390   1_554  A
C889        H895   1.083       .  S
S890        C891   1.725       .  A
C891        C892   1.390       .  A
C892        H896   1.083   1_556  S
C897        S903   1.710       .  A
C897        C902   1.387       .  A
C897        C898   1.400   1_554  A
C898        C899   1.403       .  A
C898        H909   1.083       .  S
C899        C908   1.366       .  A
C899        C900   1.387       .  A
C900        S906   1.707       .  A
C900        C901   1.397       .  A
C901        C902   1.400   1_556  A
C901        H910   1.083       .  S
C902        C905   1.363       .  A
S903        C904   1.722       .  A
C904        C905   1.385       .  A
C905        H911   1.083       .  S
S906        C907   1.720       .  A
C907        C908   1.388       .  A
C908        H912   1.083       .  S
C913        S919   1.705       .  A
C913        C918   1.387       .  A
C913        C914   1.401       .  A
C914        C915   1.401       .  A
C914        H925   1.083       .  S
C915        C924   1.370       .  A
C915        C916   1.386       .  A
C916        S922   1.714       .  A
C916        C917   1.407       .  A
C917        C918   1.408       .  A
C917        H926   1.083       .  S
C918        C921   1.378       .  A
S919        C920   1.722       .  A
C920        C921   1.390       .  A
C921        H927   1.083       .  S
S922        C923   1.726       .  A
C923        C924   1.387       .  A
C924        H928   1.083       .  S
C929        S935   1.705       .  A
C929        C934   1.387       .  A
C929        C930   1.402       .  A
C930        C931   1.402       .  A
C930        H941   1.083       .  S
C931        C940   1.371       .  A
C931        C932   1.387       .  A
C932        S938   1.705       .  A
C932        C933   1.402       .  A
C933        C934   1.402       .  A
C933        H942   1.083       .  S
C934        C937   1.372       .  A
S935        C936   1.724       .  A
C936        C937   1.386       .  A
C937        H943   1.083       .  S
S938        C939   1.723       .  A
C939        C940   1.386       .  A
C940        H944   1.083       .  S
C945        S951   1.707       .  A
C945        C950   1.387       .  A
C945        C946   1.405       .  A
C946        C947   1.404   1_545  A
C946        H957   1.083       .  S
C947        C956   1.377       .  A
C947        C948   1.387       .  A
C948        S954   1.707       .  A
C948        C949   1.405       .  A
C949        C950   1.404   1_565  A
C949        H958   1.083       .  S
C950        C953   1.376       .  A
S951        C952   1.725       .  A
C952        C953   1.388       .  A
C953        H959   1.083       .  S
S954        C955   1.726       .  A
C955        C956   1.388       .  A
C956        H960   1.083       .  S
C961        S967   1.700       .  A
C961        C966   1.388       .  A
C961        C962   1.399       .  A
C962        C963   1.399       .  A
C962        H973   1.083       .  S
C963        C972   1.368       .  A
C963        C964   1.388       .  A
C964        S970   1.700       .  A
C964        C965   1.398       .  A
C965        C966   1.399       .  A
C965        H974   1.083       .  S
C966        C969   1.367       .  A
S967        C968   1.722       .  A
C968        C969   1.382       .  A
C969        H975   1.083       .  S
S970        C971   1.722       .  A
C971        C972   1.383       .  A
C972        H976   1.083       .  S
C977        S983   1.710       .  A
C977        C982   1.386       .  A
C977        C978   1.405       .  A
C978        C979   1.405       .  A
C978        H989   1.083       .  S
C979        C988   1.377       .  A
C979        C980   1.387       .  A
C980        S986   1.708       .  A
C980        C981   1.405       .  A
C981        C982   1.405       .  A
C981        H990   1.083       .  S
C982        C985   1.377       .  A
S983        C984   1.726       .  A
C984        C985   1.390       .  A
C985        H991   1.083       .  S
S986        C987   1.726       .  A
C987        C988   1.389       .  A
C988        H992   1.083       .  S
C993        S999   1.709       .  A
C993        C998   1.386       .  A
C993        C994   1.400       .  A
C994        C995   1.402       .  A
C994       H1005   1.083       .  S
C995       C1004   1.368       .  A
C995        C996   1.386       .  A
C996       S1002   1.715       .  A
C996        C997   1.405       .  A
C997        C998   1.407       .  A
C997       H1006   1.083       .  S
C998       C1001   1.372       .  A
S999       C1000   1.722       .  A
C1000      C1001   1.391       .  A
C1001      H1007   1.083       .  S
S1002      C1003   1.725       .  A
C1003      C1004   1.388       .  A
C1004      H1008   1.083       .  S
C1009      S1015   1.701       .  A
C1009      C1014   1.387       .  A
C1009      C1010   1.403       .  A
C1010      C1011   1.401       .  A
C1010      H1021   1.083       .  S
C1011      C1020   1.375       .  A
C1011      C1012   1.387       .  A
C1012      S1018   1.706       .  A
C1012      C1013   1.405       .  A
C1013      C1014   1.404       .  A
C1013      H1022   1.083       .  S
C1014      C1017   1.378       .  A
S1015      C1016   1.726       .  A
C1016      C1017   1.388       .  A
C1017      H1023   1.083       .  S
S1018      C1019   1.725       .  A
C1019      C1020   1.386       .  A
C1020      H1024   1.083       .  S
C1025      S1031   1.714       .  A
C1025      C1030   1.386       .  A
C1025      C1026   1.405   1_565  A
C1026      C1027   1.407       .  A
C1026      H1037   1.083       .  S
C1027      C1036   1.375       .  A
C1027      C1028   1.386       .  A
C1028      S1034   1.712       .  A
C1028      C1029   1.404   1_545  A
C1029      C1030   1.405       .  A
C1029      H1038   1.083       .  S
C1030      C1033   1.374       .  A
S1031      C1032   1.725       .  A
C1032      C1033   1.390       .  A
C1033      H1039   1.083       .  S
S1034      C1035   1.724       .  A
C1035      C1036   1.391       .  A
C1036      H1040   1.083       .  S
C1041      S1047   1.711       .  A
C1041      C1046   1.386       .  A
C1041      C1042   1.403       .  A
C1042      C1043   1.404       .  A
C1042      H1053   1.083       .  S
C1043      C1052   1.372       .  A
C1043      C1044   1.385       .  A
C1044      S1050   1.717       .  A
C1044      C1045   1.408       .  A
C1045      C1046   1.409       .  A
C1045      H1054   1.083       .  S
C1046      C1049   1.377       .  A
S1047      C1048   1.723       .  A
C1048      C1049   1.392       .  A
C1049      H1055   1.083       .  S
S1050      C1051   1.727       .  A
C1051      C1052   1.390       .  A
C1052      H1056   1.083       .  S
C1057      S1063   1.711       .  A
C1057      C1062   1.386       .  A
C1057      C1058   1.405       .  A
C1058      C1059   1.406       .  A
C1058      H1069   1.083       .  S
C1059      C1068   1.374       .  A
C1059      C1060   1.387       .  A
C1060      S1066   1.708       .  A
C1060      C1061   1.402       .  A
C1061      C1062   1.403       .  A
C1061      H1070   1.083       .  S
C1062      C1065   1.371       .  A
S1063      C1064   1.726       .  A
C1064      C1065   1.388       .  A
C1065      H1071   1.083       .  S
S1066      C1067   1.723       .  A
C1067      C1068   1.389       .  A
C1068      H1072   1.083       .  S
C1073      S1079   1.706       .  A
C1073      C1078   1.387       .  A
C1073      C1074   1.401       .  A
C1074      C1075   1.402       .  A
C1074      H1085   1.083       .  S
C1075      C1084   1.370       .  A
C1075      C1076   1.387       .  A
C1076      S1082   1.707       .  A
C1076      C1077   1.402       .  A
C1077      C1078   1.403       .  A
C1077      H1086   1.083       .  S
C1078      C1081   1.371       .  A
S1079      C1080   1.723       .  A
C1080      C1081   1.387       .  A
C1081      H1087   1.083       .  S
S1082      C1083   1.723       .  A
C1083      C1084   1.386       .  A
C1084      H1088   1.083       .  S
C1089      S1095   1.709       .  A
C1089      C1094   1.387       .  A
C1089      C1090   1.400       .  A
C1090      C1091   1.402       .  A
C1090      H1101   1.083       .  S
C1091      C1100   1.365       .  A
C1091      C1092   1.387       .  A
C1092      S1098   1.706       .  A
C1092      C1093   1.397       .  A
C1093      C1094   1.400       .  A
C1093      H1102   1.083       .  S
C1094      C1097   1.363       .  A
S1095      C1096   1.722       .  A
C1096      C1097   1.385       .  A
C1097      H1103   1.084       .  S
S1098      C1099   1.720       .  A
C1099      C1100   1.386       .  A
C1100      H1104   1.083       .  S
C1105      S1111   1.708       .  A
C1105      C1110   1.387       .  A
C1105      C1106   1.404       .  A
C1106      C1107   1.404       .  A
C1106      H1117   1.083       .  S
C1107      C1116   1.376       .  A
C1107      C1108   1.387       .  A
C1108      S1114   1.707       .  A
C1108      C1109   1.404       .  A
C1109      C1110   1.404       .  A
C1109      H1118   1.083       .  S
C1110      C1113   1.375       .  A
S1111      C1112   1.725       .  A
C1112      C1113   1.388       .  A
C1113      H1119   1.083       .  S
S1114      C1115   1.725       .  A
C1115      C1116   1.388       .  A
C1116      H1120   1.083       .  S
