geometry optimzed in LAMMPS
_audit_creation_date              2020-12-01 
_audit_creation_method            'lammps2cif' 
_symmetry_space_group_name_H-M    'P1' 
_symmetry_Int_Tables_number       1 
_symmetry_cell_setting            triclinic 
loop_ 
_symmetry_equiv_pos_as_xyz 
  x,y,z 
_cell_length_a                    29.06215365 
_cell_length_b                    30.4456546576546 
_cell_length_c                    36.753549851707355 
_cell_angle_alpha                 90.2731611597517 
_cell_angle_beta                  98.53852934634095 
_cell_angle_gamma                 89.95989706916095 
loop_ 
_atom_site_label 
_atom_site_type_symbol 
_atom_site_fract_x 
_atom_site_fract_y 
_atom_site_fract_z 
_atom_site_charge 
O1          O  0.44356876  0.46130690  0.36775639    -0.81000
C2          C  0.39866500  0.36467134  0.48537773     0.98400
O3          O  0.37480667  0.39753744  0.47259729    -0.70100
O4          O  0.44044486  0.45325127  0.46982303    -0.72100
Al5        Al  0.39027082  0.43748406  0.43547315     1.49000
C6          C  0.48152991  0.46177208  0.46549621     0.93600
O7          O  0.51408898  0.36895341  0.41620397    -0.79900
O8          O  0.39366591  0.34241586  0.35995059    -0.73500
Al9        Al  0.47328269  0.41423115  0.39419614     1.90100
O10         O  0.46380299  0.31572042  0.41210744    -0.72500
O11         O  0.34032152  0.35373246  0.41101866    -0.72400
O12         O  0.41636531  0.33913901  0.46406954    -0.78000
O13         O  0.33514041  0.42483828  0.40222289    -0.76200
O14         O  0.42347288  0.39825554  0.41374365    -1.12400
O15         O  0.40121630  0.48811586  0.40642959    -0.71600
C16         C  0.42376813  0.49340172  0.38006928     0.99200
C17         C  0.50515367  0.32864852  0.41693355     0.95600
Al18       Al  0.40513101  0.34235510  0.41198757     1.55600
O19         O  0.49756667  0.45086516  0.43629879    -0.76200
C20         C  0.31664737  0.38720224  0.40024010     0.99700
C21         C  0.41859636  0.35853508  0.33792364     0.94600
O22         O  0.45463933  0.38132254  0.34930500    -0.81500
O23         O  0.55320190  0.10834654  0.16706040    -0.81000
C24         C  0.61157972  0.12179885  0.03300686     0.98400
O25         O  0.59497184  0.14767623  0.05450051    -0.70100
O26         O  0.54764727  0.17178295  0.10589872    -0.73700
Al27       Al  0.60591639  0.14360326  0.10598202     1.49000
C28         C  0.50596723  0.15957048  0.09945918     0.93600
O29         O  0.51004931  0.03627390  0.08223600    -0.79900
O30         O  0.60529117  0.50213685  0.11354542    -0.73500
Al31       Al  0.53492721  0.07408452  0.12313742     1.90100
O32         O  0.56609870  0.03358374  0.04785991    -0.72500
O33         O  0.67288963  0.05865731  0.11504608    -0.72400
O34         O  0.63350012  0.08749952  0.04509727    -0.78000
O35         O  0.67059583  0.12990960  0.10690490    -0.76200
O36         O  0.58545546  0.08831119  0.10385519    -1.12400
O37         O  0.61729875  0.14297808  0.15742347    -0.71600
C38         C  0.59048435  0.12908910  0.17878862     0.99200
C39         C  0.52528518  0.02497717  0.05289022     0.95600
Al40       Al  0.61701069  0.04796659  0.08214069     1.55600
O41         O  0.49603117  0.11942905  0.09933363    -0.76200
C42         C  0.69319249  0.09538264  0.11664508     0.99700
C43         C  0.58274139  0.49760959  0.14007371     0.94600
O44         O  0.56371000  0.02729350  0.15078157    -0.81500
O45         O  0.45517250  0.35588183  0.09843609    -0.81000
C46         C  0.39841539  0.37302262  0.23299751     0.98400
O47         O  0.41312337  0.39941136  0.21090539    -0.70100
O48         O  0.45887300  0.42333909  0.15821760    -0.73700
Al49       Al  0.40174130  0.39398586  0.15892951     1.49000
C50         C  0.50078001  0.41250790  0.16537019     0.93600
O51         O  0.49990769  0.29034981  0.18655186    -0.79900
O52         O  0.40220551  0.24901993  0.15335853    -0.73500
Al53       Al  0.47455789  0.32490913  0.14402960     1.90100
O54         O  0.44138019  0.28295340  0.21795142    -0.72500
O55         O  0.33443462  0.31001396  0.15066254    -0.72400
O56         O  0.37569605  0.33893513  0.22104861    -0.78000
O57         O  0.33715871  0.38110928  0.15854276    -0.76200
O58         O  0.42284014  0.33879110  0.16203328    -1.12400
O59         O  0.39060850  0.39097364  0.10686837    -0.71600
C60         C  0.41760250  0.37574449  0.08580808     0.99200
C61         C  0.48338354  0.27722243  0.21474899     0.95600
Al62       Al  0.39072212  0.29879617  0.18354131     1.55600
O63         O  0.51182790  0.37263449  0.16646434    -0.76200
C64         C  0.31441396  0.34690845  0.14828090     0.99700
C65         C  0.42712820  0.24377138  0.12837567     0.94600
O66         O  0.44923156  0.27550764  0.11805542    -0.81500
O67         O  0.56409820  0.21181439  0.39942631    -0.81000
C68         C  0.60879433  0.11381582  0.28228379     0.98400
O69         O  0.63244013  0.14727726  0.29432814    -0.70100
O70         O  0.56607392  0.20275793  0.29702090    -0.73700
Al71       Al  0.61729837  0.18792337  0.33114623     1.49000
C72         C  0.52510895  0.21114858  0.30197546     0.93600
O73         O  0.49629336  0.11699575  0.35058853    -0.79900
O74         O  0.61863228  0.09469059  0.40704255    -0.73500
Al75       Al  0.53559943  0.16348652  0.37298697     1.90100
O76         O  0.54800497  0.06489156  0.35715458    -0.72500
O77         O  0.67017928  0.10556808  0.35504363    -0.72400
O78         O  0.59283262  0.08803184  0.30404018    -0.78000
O79         O  0.67350222  0.17675632  0.36384164    -0.76200
O80         O  0.58565074  0.14845344  0.35339874    -1.12400
O81         O  0.60585766  0.23857890  0.36038005    -0.71600
C82         C  0.58338786  0.24401253  0.38685097     0.99200
C83         C  0.50631481  0.07681245  0.35118020     0.95600
Al84       Al  0.60570362  0.09289165  0.35559194     1.55600
O85         O  0.50989686  0.19979123  0.33130344    -0.76200
C86         C  0.69324357  0.13968058  0.36532212     0.99700
C87         C  0.59266481  0.10952900  0.42884630     0.94600
O88         O  0.55550483  0.13077575  0.41753101    -0.81500
O89         O  0.05910039  0.34950353  0.41319268    -0.81000
C90         C  0.12500388  0.35903948  0.27777021     0.98400
O91         O  0.10347860  0.38581267  0.29572454    -0.70100
O92         O  0.05174475  0.41473271  0.34378607    -0.73700
Al93       Al  0.11016738  0.38654964  0.34883217     1.49000
C94         C  0.01011107  0.40334447  0.34223899     0.93600
O95         O  0.01513275  0.28215382  0.32575782    -0.79900
O96         O  0.10753448  0.24038757  0.35632950    -0.73500
Al97       Al  0.03988523  0.31748304  0.36846945     1.90100
O98         O  0.07293585  0.27723966  0.29260144    -0.72500
O99         O  0.17691923  0.30082627  0.36484144    -0.72400
O100        O  0.14668842  0.32728710  0.29402920    -0.78000
O101        O  0.17475592  0.37211807  0.35472502    -0.76200
O102        O  0.09046137  0.33144720  0.34904829    -1.12400
O103        O  0.11767694  0.39078277  0.40149223    -0.71600
C104        C  0.09383934  0.37389516  0.42409964     0.99200
C105        C  0.03083428  0.27135146  0.29631434     0.95600
Al106      Al  0.12332629  0.29006530  0.32909185     1.55600
O107        O  0.00018458  0.36392328  0.34720016    -0.76200
C108        C  0.19655245  0.33813147  0.36725932     0.99700
C109        C  0.08548444  0.23661145  0.38291572     0.94600
O110        O  0.06771288  0.26977091  0.39527738    -0.81500
O111        O  0.94130792  0.21025915  0.10653210    -0.81000
C112        C  0.89932312  0.11523040  0.22624567     0.98400
O113        O  0.87644979  0.14884859  0.21401707    -0.70100
O114        O  0.94380681  0.20348456  0.21138399    -0.73700
Al115      Al  0.89236535  0.18856945  0.17712516     1.49000
C116        C  0.98391130  0.21375282  0.20536956     0.93600
O117        O  0.01448595  0.12215297  0.15884007    -0.79900
O118        O  0.89510779  0.09093648  0.10247657    -0.73500
Al119      Al  0.97338255  0.16508973  0.13456853     1.90100
O120        O  0.96566970  0.06733932  0.15526852    -0.72500
O121        O  0.84071366  0.10520692  0.15180303    -0.72400
O122        O  0.91663648  0.08985266  0.20497606    -0.78000
O123        O  0.83675221  0.17675058  0.14437042    -0.76200
O124        O  0.92432962  0.14898806  0.15494274    -1.12400
O125        O  0.90380227  0.23885178  0.14776279    -0.71600
C126        C  0.92414390  0.24325274  0.12001289     0.99200
C127        C  0.00657722  0.08182320  0.16103689     0.95600
Al128      Al  0.90600252  0.09293960  0.15375307     1.55600
O129        O  0.99763859  0.20446751  0.17492394    -0.76200
C130        C  0.81743162  0.13947872  0.14221922     0.99700
C131        C  0.92146090  0.10438040  0.08071024     0.94600
O132        O  0.95634399  0.12888939  0.09131602    -0.81500
O133        O  0.05106858  0.46786386  0.13643710    -0.81000
C134        C  0.11134454  0.36366056  0.02987221     0.98400
O135        O  0.13312650  0.39842629  0.04122485    -0.70100
O136        O  0.06862333  0.45637541  0.04060548    -0.73700
Al137      Al  0.11712379  0.44027911  0.07696340     1.49000
C138        C  0.02563907  0.46040007  0.04061659     0.93600
O139        O  0.99291155  0.36824715  0.08885580    -0.79900
O140        O  0.10962472  0.35529914  0.15754140    -0.73500
Al141      Al  0.02791619  0.41692954  0.11151880     1.90100
O142        O  0.04518385  0.31823318  0.10446277    -0.72500
O143        O  0.16801816  0.35826649  0.10746332    -0.72400
O144        O  0.09562167  0.33824427  0.05249006    -0.78000
O145        O  0.17199129  0.42947712  0.11146269    -0.76200
O146        O  0.08229471  0.40198923  0.09785979    -1.12400
O147        O  0.10589431  0.49024766  0.10622037    -0.71600
C148        C  0.07862780  0.49716774  0.12921841     0.99200
C149        C  0.00378006  0.32860796  0.09350283     0.95600
Al150      Al  0.10292556  0.34718381  0.10490004     1.55600
O151        O  0.00645320  0.44826239  0.06751875    -0.76200
C152        C  0.19136255  0.39249874  0.11587248     0.99700
C153        C  0.07857001  0.37127834  0.17495563     0.94600
O154        O  0.04166222  0.38839143  0.15815552    -0.81500
O155        O  0.95344745  0.10559825  0.34016882    -0.81000
C156        C  0.89952061  0.12024936  0.47603571     0.98400
O157        O  0.91593186  0.14570528  0.45447390    -0.70100
O158        O  0.96214333  0.16915548  0.40344598    -0.73700
Al159      Al  0.90388398  0.14181513  0.40317081     1.49000
C160        C  0.00344390  0.15595879  0.40912286     0.93600
O161        O  0.99936438  0.03358222  0.42380744    -0.79900
O162        O  0.90450794  0.49293566  0.39512682    -0.73500
Al163      Al  0.97309574  0.07120038  0.38345747     1.90100
O164        O  0.94518135  0.03331440  0.46000135    -0.72500
O165        O  0.83652469  0.05676695  0.39419833    -0.72400
O166        O  0.87700723  0.08617796  0.46393814    -0.78000
O167        O  0.83939799  0.12825742  0.40254665    -0.76200
O168        O  0.92378765  0.08623803  0.40415736    -1.12400
O169        O  0.89144769  0.14230024  0.35191942    -0.71600
C170        C  0.91687919  0.12789610  0.32968336     0.99200
C171        C  0.98548375  0.02381873  0.45395034     0.95600
Al172      Al  0.89315843  0.04633070  0.42657534     1.55600
O173        O  0.01271721  0.11590015  0.40691208    -0.76200
C174        C  0.81661438  0.09384816  0.39244542     0.99700
C175        C  0.92708742  0.48790071  0.36856744     0.94600
O176        O  0.94304350  0.02404193  0.35617212    -0.81500
C177        C  0.01564193  0.99981722  0.48268508    -0.15600
C178        C  0.99730325  0.47953384  0.00844381    -0.30800
H179        H  0.05067522  0.49346131  0.47951811     0.13400
H180        H  0.95969168  0.47798609  0.00688644     0.14000
C181        C  0.91091812  0.09081085  0.04225818    -0.15600
C182        C  0.90911525  0.13005578  0.51549168    -0.30800
H183        H  0.90891765  0.05592506  0.03587379     0.13400
H184        H  0.92619863  0.16098460  0.52401157     0.14000
C185        C  0.90273805  0.13672641  0.29065770    -0.15600
C186        C  0.90850650  0.10611734  0.26561273    -0.30800
H187        H  0.88583135  0.16775444  0.28256170     0.13400
H188        H  0.92444956  0.07481167  0.27429855     0.14000
C189        C  0.04433961  0.04964454  0.16895958    -0.15600
C190        C  0.07506353  0.04395606  0.14530565    -0.30800
H191        H  0.03573575  0.02151049  0.18477253     0.13400
H192        H  0.08352184  0.07142188  0.12872482     0.14000
C193        C  0.93522951  0.28784292  0.10745200    -0.15600
C194        C  0.96949939  0.29270767  0.08676009    -0.30800
H195        H  0.92500435  0.31584710  0.12286849     0.13400
H196        H  0.98174619  0.26382736  0.07357792     0.14000
C197        C  0.99973206  0.25022590  0.26598881    -0.15600
C198        C  0.01474032  0.23732050  0.23449106    -0.30800
H199        H  0.96404835  0.24405908  0.27011805     0.13400
H200        H  0.05025390  0.24385211  0.23012301     0.14000
C201        C  0.03999123  0.18928007  0.41688826    -0.15600
C202        C  0.07373935  0.19265379  0.39571406    -0.30800
H203        H  0.03010022  0.21829555  0.43125612     0.13400
H204        H  0.08223112  0.16440328  0.37978009     0.14000
C205        C  0.94030057  0.44305703  0.35718841    -0.15600
C206        C  0.97441507  0.43838942  0.33611488    -0.30800
H207        H  0.93142633  0.41541943  0.37339515     0.13400
H208        H  0.98463330  0.46697953  0.32162757     0.14000
C209        C  0.12367052  0.36223809  0.23754444    -0.15600
C210        C  0.08381670  0.37137768  0.21561529    -0.30800
H211        H  0.15383865  0.35146981  0.22560148     0.13400
H212        H  0.05340741  0.38027236  0.22810636     0.14000
C213        C  0.10743846  0.38218662  0.46412769    -0.15600
C214        C  0.10205883  0.35386862  0.98966478    -0.30800
H215        H  0.12700785  0.41184513  0.47252326     0.13400
H216        H  0.08497085  0.32301748  0.98102419     0.14000
C217        C  0.74360410  0.13608430  0.37829166    -0.15600
C218        C  0.76624792  0.09724879  0.37935492    -0.30800
H219        H  0.76240940  0.16602586  0.38712335     0.13400
H220        H  0.74745983  0.06729119  0.37054724     0.14000
C221        C  0.26412761  0.35019170  0.13405936    -0.15600
C222        C  0.24159116  0.38915526  0.13025682    -0.30800
H223        H  0.24532357  0.31991893  0.12638494     0.13400
H224        H  0.26048020  0.41945507  0.13764910     0.14000
C225        C  0.49542422  0.23578741  0.27307740    -0.15600
C226        C  0.51295791  0.25344115  0.24423639    -0.30800
H227        H  0.45900119  0.24014474  0.27584831     0.13400
H228        H  0.54948079  0.24935192  0.24167284     0.14000
C229        C  0.74375771  0.09795176  0.12899345    -0.15600
C230        C  0.76703415  0.13625530  0.12949269    -0.30800
H231        H  0.76214253  0.06782852  0.13771146     0.13400
H232        H  0.74854490  0.16633869  0.12081009     0.14000
C233        C  0.60383552  0.13679150  0.21818468    -0.15600
C234        C  0.59760060  0.10571650  0.24262832    -0.30800
H235        H  0.62156929  0.16727552  0.22703473     0.13400
H236        H  0.58093415  0.07484751  0.23335178     0.14000
C237        C  0.60276467  0.13107563  0.99347244    -0.15600
C238        C  0.60667218  0.10186528  0.46824873    -0.30800
H239        H  0.58521559  0.16163370  0.98472215     0.13400
H240        H  0.62504961  0.07167262  0.47676325     0.14000
C241        C  0.47012861  0.19414444  0.09303362    -0.15600
C242        C  0.43704384  0.19906925  0.11494293    -0.30800
H243        H  0.48064824  0.22281891  0.07879391     0.13400
H244        H  0.42751024  0.17118321  0.13059251     0.14000
C245        C  0.57048135  0.45294723  0.15198889    -0.15600
C246        C  0.53531878  0.44837690  0.17190176    -0.30800
H247        H  0.58098352  0.42489505  0.13677946     0.13400
H248        H  0.52320360  0.47734713  0.18506025     0.14000
C249        C  0.26706447  0.38210596  0.38571330    -0.15600
C250        C  0.24574500  0.34258558  0.38346642    -0.30800
H251        H  0.24787653  0.41152033  0.37615665     0.13400
H252        H  0.26479739  0.31313304  0.39309786     0.14000
C253        C  0.51027005  0.48611456  0.49504947    -0.15600
C254        C  0.49589501  0.00010620  0.02410514    -0.30800
H255        H  0.54652495  0.49168439  0.49234444     0.13400
H256        H  0.45973552  0.99475433  0.02725547     0.14000
C257        C  0.43879217  0.03642861  0.36820127    -0.15600
C258        C  0.47080045  0.04174043  0.34548617    -0.30800
H259        H  0.43028945  0.06405234  0.38482419     0.13400
H260        H  0.48081017  0.01318899  0.33060294     0.14000
C261        C  0.54166426  0.29454686  0.42270229    -0.15600
C262        C  0.57288591  0.28907118  0.39930272    -0.30800
H263        H  0.53278401  0.26625899  0.43821010     0.13400
H264        H  0.58046839  0.31642275  0.38224269     0.14000
C265        C  0.40999966  0.38140265  0.27298206    -0.15600
C266        C  0.40461438  0.35064575  0.29817138    -0.30800
H267        H  0.42629828  0.41254441  0.28187457     0.13400
H268        H  0.38731328  0.31986756  0.28963739     0.14000
C269        C  0.40797646  0.35665666  0.52538294    -0.15600
C270        C  0.40465204  0.38170660  0.04575430    -0.30800
H271        H  0.42654779  0.32673391  0.53450649     0.13400
H272        H  0.38385934  0.41031732  0.03651277     0.14000
O273        O  0.45961948  0.46405819  0.87151381    -0.81000
C274        C  0.40621987  0.36063120  0.98090916     0.98400
O275        O  0.38225981  0.39394667  0.96903403    -0.70100
O276        O  0.44498618  0.45389865  0.97044849    -0.72100
Al277      Al  0.39729517  0.43633433  0.93372758     1.49000
C278        C  0.48683182  0.46232736  0.96856672     0.93600
O279        O  0.52339838  0.36980298  0.92364762    -0.79900
O280        O  0.40669681  0.35086239  0.85451191    -0.73500
Al281      Al  0.48631510  0.41577766  0.89863522     1.90100
O282        O  0.47425214  0.31720971  0.90657289    -0.72500
O283        O  0.34959954  0.35234308  0.90505671    -0.72400
O284        O  0.42375823  0.33565074  0.95885835    -0.78000
O285        O  0.34338343  0.42330793  0.89871927    -0.76200
O286        O  0.43327733  0.39909982  0.91305628    -1.12400
O287        O  0.40793041  0.48687311  0.90486445    -0.71600
C288        C  0.43367138  0.49387528  0.88073858     0.99200
C289        C  0.51478529  0.32961984  0.91867893     0.95600
Al290      Al  0.41504418  0.34348043  0.90673285     1.55600
O291        O  0.50562506  0.45127057  0.94103444    -0.76200
C292        C  0.32516338  0.38563652  0.89565487     0.99700
C293        C  0.43715225  0.36681821  0.83675432     0.94600
O294        O  0.47454674  0.38365623  0.85316059    -0.81500
O295        O  0.55040468  0.11084232  0.66599067    -0.81000
C296        C  0.60970368  0.12396675  0.53282022     0.98400
O297        O  0.59347059  0.15011012  0.55430043    -0.70100
O298        O  0.54593852  0.17383614  0.60529993    -0.73700
Al299      Al  0.60423004  0.14595098  0.60576163     1.49000
C300        C  0.50458685  0.16121147  0.59716784     0.93600
O301        O  0.50908884  0.03799258  0.58130721    -0.79900
O302        O  0.59953643  0.49964738  0.61398721    -0.73500
Al303      Al  0.53310430  0.07618783  0.62210279     1.90100
O304        O  0.56559712  0.03597629  0.54741296    -0.72500
O305        O  0.67144255  0.06143056  0.61533782    -0.72400
O306        O  0.63244861  0.09015953  0.54512468    -0.78000
O307        O  0.66894056  0.13265920  0.60699460    -0.76200
O308        O  0.58399618  0.09055290  0.60346098    -1.12400
O309        O  0.61514722  0.14496861  0.65714589    -0.71600
C310        C  0.58792487  0.13099396  0.67815586     0.99200
C311        C  0.52480495  0.02698024  0.55211435     0.95600
Al312      Al  0.61593582  0.05042247  0.58206086     1.55600
O313        O  0.49484172  0.12105699  0.59718364    -0.76200
C314        C  0.69153303  0.09829239  0.61714272     0.99700
C315        C  0.57564103  0.49578578  0.63986748     0.94600
O316        O  0.56158500  0.02961126  0.65032819    -0.81500
O317        O  0.44816044  0.35553035  0.60098896    -0.81000
C318        C  0.38497020  0.35828288  0.73541976     0.98400
O319        O  0.40419547  0.38692540  0.71769141    -0.70100
O320        O  0.45223832  0.42034964  0.66838287    -0.73700
Al321      Al  0.39551505  0.38925320  0.66503852     1.49000
C322        C  0.49437677  0.41099369  0.67013258     0.93600
O323        O  0.49477560  0.28915862  0.68765584    -0.79900
O324        O  0.39655223  0.24514803  0.64794251    -0.73500
Al325      Al  0.46929683  0.32364136  0.64530942     1.90100
O326        O  0.43397816  0.27317421  0.71515185    -0.72500
O327        O  0.32892723  0.30525793  0.64653259    -0.72400
O328        O  0.36377490  0.32599942  0.71900531    -0.78000
O329        O  0.33098368  0.37502586  0.66118094    -0.76200
O330        O  0.41676856  0.33444639  0.66334467    -1.12400
O331        O  0.38656794  0.39345945  0.61273118    -0.71600
C332        C  0.41187299  0.37822889  0.59028539     0.99200
C333        C  0.47719708  0.27212322  0.71405319     0.95600
Al334      Al  0.38356601  0.29127977  0.68032897     1.55600
O335        O  0.50619854  0.37173189  0.66726053    -0.76200
C336        C  0.30890846  0.34208258  0.64695342     0.99700
C337        C  0.42363786  0.24196648  0.62453036     0.94600
O338        O  0.44781306  0.27407007  0.61807542    -0.81500
O339        O  0.56419364  0.21225749  0.89887257    -0.81000
C340        C  0.60689162  0.11396440  0.78137680     0.98400
O341        O  0.63054670  0.14749737  0.79303908    -0.70100
O342        O  0.56488391  0.20347761  0.79782575    -0.73700
Al343      Al  0.61746112  0.18760134  0.83061636     1.49000
C344        C  0.52331183  0.20928224  0.80255760     0.93600
O345        O  0.49772382  0.11520323  0.85326739    -0.79900
O346        O  0.62127464  0.09388949  0.90656872    -0.73500
Al347      Al  0.53689587  0.16252113  0.87384377     1.90100
O348        O  0.54985507  0.06370233  0.85767527    -0.72500
O349        O  0.67116953  0.10490219  0.85318310    -0.72400
O350        O  0.59232302  0.08766779  0.80347693    -0.78000
O351        O  0.67495691  0.17603428  0.86147521    -0.76200
O352        O  0.58661704  0.14789156  0.85343308    -1.12400
O353        O  0.60872203  0.23731372  0.86106272    -0.71600
C354        C  0.58655504  0.24324786  0.88755966     0.99200
C355        C  0.50805811  0.07521223  0.85307094     0.95600
Al356      Al  0.60690657  0.09228499  0.85506591     1.55600
O357        O  0.50885961  0.19694936  0.83189300    -0.76200
C358        C  0.69469884  0.13905355  0.86234034     0.99700
C359        C  0.59637648  0.10927699  0.92899851     0.94600
O360        O  0.55937441  0.13112196  0.91845482    -0.81500
O361        O  0.06166575  0.35218825  0.91209683    -0.81000
C362        C  0.12814540  0.35606321  0.77752916     0.98400
O363        O  0.10813118  0.38356271  0.79591557    -0.70100
O364        O  0.05704952  0.41266401  0.84392413    -0.73700
Al365      Al  0.11569521  0.38472252  0.84888641     1.49000
C366        C  0.01542868  0.40029946  0.83893009     0.93600
O367        O  0.02100506  0.27798016  0.82813315    -0.79900
O368        O  0.11258836  0.23963935  0.85964837    -0.73500
Al369      Al  0.04477723  0.31677057  0.86865536     1.90100
O370        O  0.07773073  0.27334362  0.79422626    -0.72500
O371        O  0.18310578  0.29963604  0.86492466    -0.72400
O372        O  0.15013203  0.32419818  0.79357678    -0.78000
O373        O  0.18060444  0.37063522  0.85408475    -0.76200
O374        O  0.09580810  0.32976395  0.84943909    -1.12400
O375        O  0.12374581  0.38902484  0.90156333    -0.71600
C376        C  0.09783378  0.37444781  0.92366727     0.99200
C377        C  0.03605655  0.26667882  0.79865114     0.95600
Al378      Al  0.12842463  0.28777204  0.83017281     1.55600
O379        O  0.00553813  0.36076934  0.84330161    -0.76200
C380        C  0.20301971  0.33680580  0.86617520     0.99700
C381        C  0.09009648  0.23771076  0.88627319     0.94600
O382        O  0.07376652  0.27193768  0.89808289    -0.81500
O383        O  0.94014745  0.21291591  0.60928874    -0.81000
C384        C  0.89893433  0.11303117  0.72661221     0.98400
O385        O  0.87708874  0.14791606  0.71625096    -0.70100
O386        O  0.94521641  0.20171967  0.71399670    -0.73700
Al387      Al  0.89232351  0.18904502  0.68024893     1.49000
C388        C  0.98539347  0.21110821  0.70757993     0.93600
O389        O  0.01108920  0.12111029  0.65803380    -0.79900
O390        O  0.88924087  0.09586942  0.60187736    -0.73500
Al391      Al  0.97117986  0.16583124  0.63541437     1.90100
O392        O  0.96082370  0.06744244  0.65204656    -0.72500
O393        O  0.83798687  0.10768033  0.65348862    -0.72400
O394        O  0.91466026  0.08830543  0.70399504    -0.78000
O395        O  0.83524709  0.17947842  0.64833272    -0.76200
O396        O  0.92230550  0.14996191  0.65607319    -1.12400
O397        O  0.90375960  0.24016664  0.65184588    -0.71600
C398        C  0.92317397  0.24537918  0.62368208     0.99200
C399        C  0.00204107  0.08091459  0.65888649     0.95600
Al400      Al  0.90232185  0.09438220  0.65308086     1.55600
O401        O  0.99777035  0.20285311  0.67650166    -0.76200
C402        C  0.81522048  0.14251990  0.64526619     0.99700
C403        C  0.91509423  0.11008668  0.58002283     0.94600
O404        O  0.95179119  0.13202359  0.59117482    -0.81500
O405        O  0.05371292  0.46594986  0.63980405    -0.81000
C406        C  0.10757055  0.36265280  0.53001307     0.98400
O407        O  0.13108121  0.39635898  0.54174681    -0.70100
O408        O  0.06625249  0.45392545  0.54001123    -0.73700
Al409      Al  0.11460917  0.43908370  0.57672059     1.49000
C410        C  0.02438785  0.46184211  0.54216028     0.93600
O411        O  0.99017070  0.37070945  0.58918954    -0.79900
O412        O  0.10792373  0.35399434  0.65725736    -0.73500
Al413      Al  0.02706221  0.41750605  0.61324285     1.90100
O414        O  0.04070332  0.31900152  0.60503969    -0.72500
O415        O  0.16415400  0.35698014  0.60619362    -0.72400
O416        O  0.09053035  0.33787872  0.55234688    -0.78000
O417        O  0.16897025  0.42828275  0.61180823    -0.76200
O418        O  0.07992157  0.40143833  0.59822378    -1.12400
O419        O  0.10219822  0.49045948  0.60464845    -0.71600
C420        C  0.07703282  0.49681171  0.62933722     0.99200
C421        C  0.99964229  0.33072054  0.59403809     0.95600
Al422      Al  0.09932035  0.34635063  0.60467173     1.55600
O423        O  0.00639712  0.45193169  0.57035784    -0.76200
C424        C  0.18779231  0.39088057  0.61546166     0.99700
C425        C  0.07749903  0.36959789  0.67538118     0.94600
O426        O  0.04012121  0.38654351  0.65913508    -0.81500
O427        O  0.94997195  0.08817447  0.83832939    -0.81000
C428        C  0.89637307  0.10864785  0.97671343     0.98400
O429        O  0.89836952  0.13877117  0.95392227    -0.70100
O430        O  0.96537727  0.16379580  0.92276310    -0.73700
Al431      Al  0.90677712  0.13898385  0.90447514     1.49000
C432        C  0.00349723  0.15853245  0.91156912     0.93600
O433        O  0.00965084  0.05292286  0.93239049    -0.79900
O434        O  0.89538539  0.49221972  0.87286767    -0.73500
Al435      Al  0.97887699  0.07114244  0.88544605     1.90100
O436        O  0.95081610  0.01358536  0.94670465    -0.72500
O437        O  0.83526884  0.05711671  0.90063833    -0.72400
O438        O  0.89305414  0.06890178  0.96689033    -0.78000
O439        O  0.84359647  0.12647742  0.88801618    -0.76200
O440        O  0.92659715  0.08307129  0.90386149    -1.12400
O441        O  0.91294072  0.14758716  0.85411662    -0.71600
C442        C  0.92541082  0.12217741  0.83000246     0.99200
C443        C  0.99294067  0.02549936  0.95283157     0.95600
Al444      Al  0.89594432  0.03891588  0.92188517     1.55600
O445        O  0.00981944  0.12558757  0.89267034    -0.76200
C446        C  0.81828726  0.09321354  0.88875523     0.99700
C447        C  0.93307976  0.48227674  0.86212642     0.94600
O448        O  0.96640663  0.01284920  0.87194612    -0.81500
C449        C  0.02211644  0.00628214  0.98460937    -0.15600
C450        C  0.99624119  0.48405799  0.51153941    -0.30800
H451        H  0.05433923  0.50273427  0.98410155     0.13400
H452        H  0.95978718  0.48930229  0.51384546     0.14000
C453        C  0.90151475  0.10073558  0.54082708    -0.15600
C454        C  0.90185833  0.12079733  0.01576045    -0.30800
H455        H  0.88327774  0.07025114  0.53280304     0.13400
H456        H  0.90290718  0.15551810  0.02297518     0.14000
C457        C  0.91004139  0.13264059  0.79143600    -0.15600
C458        C  0.90863743  0.10169092  0.76542911    -0.30800
H459        H  0.89921633  0.16609771  0.78436782     0.13400
H460        H  0.91976152  0.06833202  0.77259546     0.14000
C461        C  0.03877341  0.04787586  0.66691496    -0.15600
C462        C  0.07058139  0.04224527  0.64420932    -0.30800
H463        H  0.02912824  0.01979189  0.68232681     0.13400
H464        H  0.07970797  0.06967742  0.62785959     0.14000
C465        C  0.93308601  0.29031717  0.61125795    -0.15600
C466        C  0.96402200  0.29600687  0.58773767    -0.30800
H467        H  0.92534886  0.31771281  0.62843051     0.13400
H468        H  0.97379799  0.26772556  0.57243445     0.14000
C469        C  0.00438723  0.24478528  0.76909230    -0.15600
C470        C  0.01785938  0.23277957  0.73683312    -0.30800
H471        H  0.96905110  0.23844743  0.77405344     0.13400
H472        H  0.05300881  0.23948785  0.73162600     0.14000
C473        C  0.03864834  0.19354984  0.91774663    -0.15600
C474        C  0.07518971  0.19492400  0.89904129    -0.30800
H475        H  0.02850797  0.22294127  0.93147168     0.13400
H476        H  0.08495191  0.16575083  0.88485625     0.14000
C477        C  0.94221976  0.43843996  0.84692297    -0.15600
C478        C  0.97957647  0.43433805  0.82933571    -0.30800
H479        H  0.92838636  0.40995604  0.85929454     0.13400
H480        H  0.99230052  0.46382475  0.81749240     0.14000
C481        C  0.12473346  0.35893360  0.73705988    -0.15600
C482        C  0.08437025  0.36935666  0.71614266    -0.30800
H483        H  0.15383530  0.34737546  0.72415048     0.13400
H484        H  0.05494576  0.37902247  0.72955389     0.14000
C485        C  0.11046593  0.38317658  0.96377885    -0.15600
C486        C  0.09778201  0.35332603  0.48986461    -0.30800
H487        H  0.12870407  0.41354307  0.97212214     0.13400
H488        H  0.07911268  0.32325977  0.48116844     0.14000
C489        C  0.74558522  0.13570997  0.87318430    -0.15600
C490        C  0.76773527  0.09664861  0.87637477    -0.30800
H491        H  0.76512694  0.16594113  0.87927189     0.13400
H492        H  0.74799586  0.06633236  0.87162224     0.14000
C493        C  0.25926106  0.34684441  0.63180182    -0.15600
C494        C  0.23765564  0.38629909  0.62997971    -0.30800
H495        H  0.24016307  0.31740292  0.62198052     0.13400
H496        H  0.25692291  0.41584144  0.63925852     0.14000
C497        C  0.49166274  0.23159232  0.77317392    -0.15600
C498        C  0.50781521  0.24996401  0.74404858    -0.30800
H499        H  0.45495964  0.23354829  0.77574098     0.13400
H500        H  0.54468432  0.24853421  0.74193362     0.14000
C501        C  0.74187473  0.10117675  0.63014536    -0.15600
C502        C  0.76474746  0.13985104  0.63270988    -0.30800
H503        H  0.76051785  0.07080238  0.63754569     0.13400
H504        H  0.74608016  0.17024754  0.62546464     0.14000
C505        C  0.60120181  0.13784725  0.71760971    -0.15600
C506        C  0.59432626  0.10657835  0.74173872    -0.30800
H507        H  0.62001969  0.16770558  0.72672662     0.13400
H508        H  0.57677107  0.07618450  0.73227767     0.14000
C509        C  0.59946807  0.13231951  0.49314987    -0.15600
C510        C  0.61110907  0.10138654  0.96829439    -0.30800
H511        H  0.58219849  0.16293412  0.48417191     0.13400
H512        H  0.62977504  0.07125565  0.97653995     0.14000
C513        C  0.46871438  0.19529505  0.58904978    -0.15600
C514        C  0.43330981  0.19864536  0.60872698    -0.30800
H515        H  0.48061901  0.22486279  0.57681119     0.13400
H516        H  0.42193609  0.16966241  0.62207350     0.14000
C517        C  0.56280743  0.45156038  0.65285859    -0.15600
C518        C  0.52820644  0.44790383  0.67369805    -0.30800
H519        H  0.57322303  0.42280497  0.63846816     0.13400
H520        H  0.51644358  0.47747804  0.68622170     0.14000
C521        C  0.27507135  0.38046265  0.88179424    -0.15600
C522        C  0.25313676  0.34116435  0.88059748    -0.30800
H523        H  0.25571340  0.40989281  0.87256409     0.13400
H524        H  0.27231311  0.31172777  0.89007909     0.14000
C525        C  0.51420324  0.48655584  0.99854548    -0.15600
C526        C  0.49614390  0.00181417  0.52321338    -0.30800
H527        H  0.55074954  0.49159811  0.99647274     0.13400
H528        H  0.45999007  0.99607081  0.52618649     0.14000
C529        C  0.43924378  0.03540889  0.86920729    -0.15600
C530        C  0.47275883  0.03995576  0.84767982    -0.30800
H531        H  0.43022690  0.06323935  0.88537143     0.13400
H532        H  0.48319287  0.01116635  0.83331695     0.14000
C533        C  0.55080442  0.29544106  0.92596573    -0.15600
C534        C  0.58062537  0.28831899  0.90179173    -0.30800
H535        H  0.54084366  0.26764952  0.94152232     0.13400
H536        H  0.58941557  0.31540449  0.88494203     0.14000
C537        C  0.38868768  0.36022776  0.77570433    -0.15600
C538        C  0.43006656  0.36733546  0.79624812    -0.30800
H539        H  0.35897347  0.35043895  0.78855309     0.13400
H540        H  0.45984838  0.37536984  0.78277551     0.14000
C541        C  0.41594827  0.35231217  0.02098819    -0.15600
C542        C  0.39812240  0.38615655  0.55054378    -0.30800
H543        H  0.43566350  0.32312454  0.03040468     0.13400
H544        H  0.37846218  0.41563391  0.54193973     0.14000
O545        O  0.44690694  0.95899637  0.36774788    -0.81000
C546        C  0.40218210  0.86371315  0.48615549     0.98400
O547        O  0.37817681  0.89640140  0.47317794    -0.70100
O548        O  0.44476340  0.95105281  0.47037715    -0.72100
Al549      Al  0.39412324  0.93605073  0.43620822     1.49000
C550        C  0.48554828  0.95996536  0.46541489     0.93600
O551        O  0.51626945  0.86646266  0.41762777    -0.79900
O552        O  0.39518595  0.84040383  0.36164461    -0.73500
Al553      Al  0.47622537  0.91164889  0.39474986     1.90100
O554        O  0.46566276  0.81339590  0.41312540    -0.72500
O555        O  0.34275336  0.85290593  0.41269539    -0.72400
O556        O  0.41942179  0.83765532  0.46509037    -0.78000
O557        O  0.33878437  0.92394999  0.40304648    -0.76200
O558        O  0.42647148  0.89636512  0.41455736    -1.12400
O559        O  0.40584770  0.98642170  0.40710392    -0.71600
C560        C  0.42807546  0.99149650  0.38050714     0.99200
C561        C  0.50702914  0.82625726  0.41870403     0.95600
Al562      Al  0.40740170  0.84058572  0.41327376     1.55600
O563        O  0.50107490  0.94896050  0.43606778    -0.76200
C564        C  0.31967239  0.88657455  0.40139211     0.99700
C565        C  0.42021385  0.85600955  0.33956596     0.94600
O566        O  0.45701394  0.87787972  0.35062148    -0.81500
O567        O  0.55465973  0.61190158  0.16896590    -0.81000
C568        C  0.60932439  0.62507609  0.03395573     0.98400
O569        O  0.59341611  0.65128610  0.05565844    -0.70100
O570        O  0.54794758  0.67541162  0.10838721    -0.73700
Al571      Al  0.60601045  0.64742553  0.10737522     1.49000
C572        C  0.50634226  0.66303129  0.10209387     0.93600
O573        O  0.50985913  0.53986232  0.08504493    -0.79900
O574        O  0.60440472  0.99823958  0.11176643    -0.73500
Al575      Al  0.53560527  0.57763711  0.12550272     1.90100
O576        O  0.56549369  0.53736426  0.05032881    -0.72500
O577        O  0.67379408  0.56324402  0.11574784    -0.72400
O578        O  0.63223313  0.59135471  0.04613692    -0.78000
O579        O  0.67072758  0.63437305  0.10706266    -0.76200
O580        O  0.58579063  0.59203169  0.10569278    -1.12400
O581        O  0.61874593  0.64642560  0.15892794    -0.71600
C582        C  0.59240223  0.63195923  0.18050594     0.99200
C583        C  0.52479156  0.52861136  0.05563517     0.95600
Al584      Al  0.61705089  0.55195192  0.08369704     1.55600
O585        O  0.49654873  0.62288498  0.10199716    -0.76200
C586        C  0.69389213  0.60011008  0.11656668     0.99700
C587        C  0.58239971  0.99431393  0.13866255     0.94600
O588        O  0.56458785  0.53051133  0.15286674    -0.81500
O589        O  0.45552284  0.85915782  0.10174589    -0.81000
C590        C  0.39886193  0.87414930  0.23602114     0.98400
O591        O  0.41471361  0.90050233  0.21461476    -0.70100
O592        O  0.46148513  0.92411290  0.16277145    -0.73700
Al593      Al  0.40325540  0.89626076  0.16287029     1.49000
C594        C  0.50308605  0.91181395  0.16906516     0.93600
O595        O  0.49848519  0.78891233  0.18764808    -0.79900
O596        O  0.40341651  0.75067673  0.15725358    -0.73500
Al597      Al  0.47384811  0.82589104  0.14613208     1.90100
O598        O  0.44180508  0.78592703  0.22140279    -0.72500
O599        O  0.33556615  0.81210658  0.15328020    -0.72400
O600        O  0.37495615  0.84111106  0.22338741    -0.78000
O601        O  0.33836565  0.88334664  0.16190217    -0.76200
O602        O  0.42328273  0.84074286  0.16508233    -1.12400
O603        O  0.39186969  0.89499537  0.11114164    -0.71600
C604        C  0.41841586  0.88005239  0.08977812     0.99200
C605        C  0.48287798  0.77748061  0.21678026     0.95600
Al606      Al  0.39113825  0.80091878  0.18664319     1.55600
O607        O  0.51284835  0.87162537  0.16950637    -0.76200
C608        C  0.31568871  0.84911377  0.15116251     0.99700
C609        C  0.42611176  0.74606122  0.13083107     0.94600
O610        O  0.44525647  0.77863774  0.11880991    -0.81500
O611        O  0.56292863  0.70952795  0.40119569    -0.81000
C612        C  0.60747036  0.61307774  0.28328361     0.98400
O613        O  0.63158953  0.64573395  0.29625545    -0.70100
O614        O  0.56530427  0.70167914  0.29874227    -0.73700
Al615      Al  0.61616974  0.68573893  0.33306988     1.49000
C616        C  0.52430294  0.71032428  0.30354156     0.93600
O617        O  0.49347315  0.61692616  0.35134586    -0.79900
O618        O  0.61432302  0.59067698  0.40757829    -0.73500
Al619      Al  0.53362698  0.66209584  0.37418449     1.90100
O620        O  0.54370088  0.56353130  0.35608654    -0.72500
O621        O  0.66731794  0.60220076  0.35658830    -0.72400
O622        O  0.59039234  0.58701859  0.30422670    -0.78000
O623        O  0.67172444  0.67334264  0.36588260    -0.76200
O624        O  0.58351169  0.64637620  0.35459723    -1.12400
O625        O  0.60553428  0.73593730  0.36264662    -0.71600
C626        C  0.58338525  0.74136886  0.38922535     0.99200
C627        C  0.50237615  0.57663813  0.35063939     0.95600
Al628      Al  0.60232016  0.59041167  0.35597230     1.55600
O629        O  0.50882296  0.69905015  0.33276950    -0.76200
C630        C  0.69092867  0.63603968  0.36687182     0.99700
C631        C  0.58896192  0.60633815  0.42950974     0.94600
O632        O  0.55254464  0.62865675  0.41833133    -0.81500
O633        O  0.06243161  0.85123993  0.41577804    -0.81000
C634        C  0.12568494  0.85976388  0.27938811     0.98400
O635        O  0.10491062  0.88690688  0.29758585    -0.70100
O636        O  0.05483095  0.91687259  0.34654094    -0.73700
Al637      Al  0.11272709  0.88777629  0.35080264     1.49000
C638        C  0.01306462  0.90621470  0.34545895     0.93600
O639        O  0.01585842  0.78471785  0.32870909    -0.79900
O640        O  0.10902520  0.74173656  0.35904020    -0.73500
Al641      Al  0.04175572  0.81961875  0.37118789     1.90100
O642        O  0.07362511  0.77803450  0.29567753    -0.72500
O643        O  0.17882674  0.80174494  0.36642657    -0.72400
O644        O  0.14720750  0.82780532  0.29553320    -0.78000
O645        O  0.17726634  0.87286830  0.35583456    -0.76200
O646        O  0.09235623  0.83283577  0.35139090    -1.12400
O647        O  0.12123941  0.89195353  0.40348659    -0.71600
C648        C  0.09761101  0.87523678  0.42633914     0.99200
C649        C  0.03147944  0.77274262  0.29956815     0.95600
Al650      Al  0.12456468  0.79106308  0.33136401     1.55600
O651        O  0.00261527  0.86691590  0.35042328    -0.76200
C652        C  0.19891125  0.83879793  0.36833518     0.99700
C653        C  0.08583993  0.73767298  0.38491953     0.94600
O654        O  0.06838185  0.77088311  0.39755921    -0.81500
O655        O  0.95097527  0.71556198  0.11060631    -0.81000
C656        C  0.90053341  0.61255202  0.22164810     0.98400
O657        O  0.87856025  0.64751740  0.21144065    -0.70100
O658        O  0.94525021  0.70397873  0.21343517    -0.73700
Al659      Al  0.89486188  0.69040617  0.17715056     1.49000
C660        C  0.98605899  0.71397779  0.20921452     0.93600
O661        O  0.01633977  0.62296639  0.16313528    -0.79900
O662        O  0.89828845  0.60430115  0.09502419    -0.73500
Al663      Al  0.97953194  0.66852202  0.13798478     1.90100
O664        O  0.96626524  0.57045773  0.14690996    -0.72500
O665        O  0.84236031  0.60937331  0.14605181    -0.72400
O666        O  0.91639835  0.58806977  0.19860476    -0.78000
O667        O  0.83905386  0.68104143  0.14331924    -0.76200
O668        O  0.92744605  0.65249189  0.15405658    -1.12400
O669        O  0.90743192  0.74169986  0.14926831    -0.71600
C670        C  0.92999626  0.74721030  0.12276979     0.99200
C671        C  0.00695123  0.58280979  0.15905599     0.95600
Al672      Al  0.90729212  0.59741637  0.14714918     1.55600
O673        O  0.00147507  0.70532669  0.17957574    -0.76200
C674        C  0.81910272  0.64413876  0.13937049     0.99700
C675        C  0.92936416  0.61813032  0.07704702     0.94600
O676        O  0.96657344  0.63552649  0.09311292    -0.81500
O677        O  0.05513051  0.96939820  0.13886313    -0.81000
C678        C  0.11284760  0.86481797  0.03181088     0.98400
O679        O  0.13559047  0.89931624  0.04281623    -0.70100
O680        O  0.07218559  0.95816216  0.04138013    -0.73700
Al681      Al  0.11981237  0.94217946  0.07820348     1.49000
C682        C  0.02974770  0.96455441  0.04212118     0.93600
O683        O  0.99566676  0.87252695  0.08828110    -0.79900
O684        O  0.11155746  0.85830580  0.15927265    -0.73500
Al685      Al  0.03067050  0.92000427  0.11264896     1.90100
O686        O  0.04617890  0.82165250  0.10659782    -0.72500
O687        O  0.16987547  0.86022925  0.10922394    -0.72400
O688        O  0.09713320  0.83992818  0.05473514    -0.78000
O689        O  0.17392032  0.93147870  0.11331239    -0.76200
O690        O  0.08471623  0.90446463  0.09923211    -1.12400
O691        O  0.10794594  0.99283126  0.10698107    -0.71600
C692        C  0.08137784  0.99931810  0.13067602     0.99200
C693        C  0.00539826  0.83280378  0.09398931     0.95600
Al694      Al  0.10467703  0.84954199  0.10681779     1.55600
O695        O  0.01052500  0.95328641  0.06927411    -0.76200
C696        C  0.19311906  0.89447753  0.11798643     0.99700
C697        C  0.07989349  0.87363627  0.17633004     0.94600
O698        O  0.04277365  0.88992463  0.15901712    -0.81500
O699        O  0.95277257  0.60185114  0.33757873    -0.81000
C700        C  0.89911715  0.61863681  0.47347875     0.98400
O701        O  0.91456591  0.64392823  0.45110747    -0.70100
O702        O  0.95900522  0.66688898  0.39813291    -0.73700
Al703      Al  0.90168080  0.63837056  0.39952983     1.49000
C704        C  0.00057580  0.65496498  0.40571205     0.93600
O705        O  0.99921212  0.53239331  0.42299854    -0.79900
O706        O  0.90600667  0.99552124  0.39743186    -0.73500
Al707      Al  0.97275039  0.56882806  0.38192898     1.90100
O708        O  0.94372986  0.53048750  0.45784958    -0.72500
O709        O  0.83497978  0.55346725  0.39245434    -0.72400
O710        O  0.87680014  0.58408790  0.46207532    -0.78000
O711        O  0.83758769  0.62480814  0.40032169    -0.76200
O712        O  0.92254882  0.58323295  0.40177535    -1.12400
O713        O  0.88864533  0.63610340  0.34802140    -0.71600
C714        C  0.91500524  0.62203781  0.32619321     0.99200
C715        C  0.98455073  0.52212030  0.45270551     0.95600
Al716      Al  0.89203006  0.54357501  0.42452578     1.55600
O717        O  0.01101479  0.61498374  0.40531970    -0.76200
C718        C  0.81473801  0.59029511  0.39101781     0.99700
C719        C  0.92770748  0.99077859  0.37036133     0.94600
O720        O  0.94447876  0.52067458  0.35521405    -0.81500
C721        C  0.01433560  0.49884790  0.48209052    -0.15600
C722        C  0.00216872  0.98562252  0.01063728    -0.30800
H723        H  0.05207211  0.99514446  0.48005222     0.13400
H724        H  0.96455413  0.98460563  0.00912058     0.14000
C725        C  0.92347305  0.61546206  0.03667566    -0.15600
C726        C  0.90934863  0.62927575  0.51308353    -0.30800
H727        H  0.94963458  0.63185121  0.02326942     0.13400
H728        H  0.92771815  0.65973263  0.52103707     0.14000
C729        C  0.90106508  0.63017241  0.28682208    -0.15600
C730        C  0.91036516  0.60159485  0.26099837    -0.30800
H731        H  0.88128499  0.65982850  0.27901173     0.13400
H732        H  0.92892218  0.57131984  0.26901487     0.14000
C733        C  0.04251907  0.54866899  0.16727130    -0.15600
C734        C  0.07363355  0.54184052  0.14418035    -0.30800
H735        H  0.03144343  0.52069114  0.18206761     0.13400
H736        H  0.08422147  0.56915757  0.12838972     0.14000
C737        C  0.93854200  0.79205445  0.10968617    -0.15600
C738        C  0.97026904  0.79791985  0.08686723    -0.30800
H739        H  0.92930182  0.81955386  0.12611278     0.13400
H740        H  0.98111135  0.76970310  0.07203754     0.14000
C741        C  0.00033582  0.75097177  0.26968944    -0.15600
C742        C  0.01617920  0.73667840  0.23904594    -0.30800
H743        H  0.96426642  0.74585004  0.27319432     0.13400
H744        H  0.05215427  0.74220022  0.23542814     0.14000
C745        C  0.03566141  0.68969105  0.41431583    -0.15600
C746        C  0.07232399  0.69340663  0.39612724    -0.30800
H747        H  0.02341130  0.71874985  0.42727291     0.13400
H748        H  0.08305848  0.66524944  0.38115570     0.14000
C749        C  0.94253911  0.94611547  0.35964285    -0.15600
C750        C  0.97794852  0.94196309  0.33975596    -0.30800
H751        H  0.93309702  0.91824002  0.37530762     0.13400
H752        H  0.98889194  0.97088893  0.32611140     0.14000
C753        C  0.12418212  0.86305798  0.23908442    -0.15600
C754        C  0.08480563  0.87374724  0.21705497    -0.30800
H755        H  0.15391648  0.85123153  0.22709678     0.13400
H756        H  0.05462651  0.88357799  0.22945755     0.14000
C757        C  0.11178970  0.88330791  0.46628443    -0.15600
C758        C  0.10210777  0.85447362  0.99176718    -0.30800
H759        H  0.13070060  0.91332684  0.47466624     0.13400
H760        H  0.08518719  0.82332925  0.98386540     0.14000
C761        C  0.74142223  0.63213857  0.37893445    -0.15600
C762        C  0.76403956  0.59336087  0.37930217    -0.30800
H763        H  0.76050064  0.66206623  0.38734708     0.13400
H764        H  0.74505810  0.56337104  0.37094282     0.14000
C765        C  0.26557146  0.85234651  0.13674643    -0.15600
C766        C  0.24305620  0.89122889  0.13301049    -0.30800
H767        H  0.24691772  0.82208936  0.12870961     0.13400
H768        H  0.26178012  0.92152539  0.14076808     0.14000
C769        C  0.49483233  0.73526922  0.27469742    -0.15600
C770        C  0.51226773  0.75254733  0.24567033    -0.30800
H771        H  0.45860626  0.74036487  0.27779002     0.13400
H772        H  0.54849486  0.74744951  0.24259734     0.14000
C773        C  0.74482942  0.60306231  0.12760238    -0.15600
C774        C  0.76818626  0.64146046  0.12797641    -0.30800
H775        H  0.76354821  0.57285883  0.13547941     0.13400
H776        H  0.74946084  0.67175858  0.12047466     0.14000
C777        C  0.60663605  0.63761902  0.21999832    -0.15600
C778        C  0.59691959  0.60662810  0.24348534    -0.30800
H779        H  0.62700515  0.66640635  0.22970787     0.13400
H780        H  0.57771842  0.57733369  0.23328289     0.14000
C781        C  0.59886491  0.63316446  0.99417295    -0.15600
C782        C  0.60299841  0.59891776  0.46898706    -0.30800
H783        H  0.58042107  0.66317706  0.98511232     0.13400
H784        H  0.62189958  0.56906068  0.47770876     0.14000
C785        C  0.47034164  0.69734923  0.09589151    -0.15600
C786        C  0.43725233  0.70159299  0.11780635    -0.30800
H787        H  0.48043749  0.72619722  0.08164345     0.13400
H788        H  0.42855759  0.67357313  0.13369391     0.14000
C789        C  0.57159057  0.95013195  0.15223988    -0.15600
C790        C  0.53907309  0.94628913  0.17469851    -0.30800
H791        H  0.58006208  0.92175076  0.13645129     0.13400
H792        H  0.52914172  0.97547728  0.18881812     0.14000
C793        C  0.27004140  0.88206877  0.38673133    -0.15600
C794        C  0.24834553  0.84274492  0.38405774    -0.30800
H795        H  0.25109190  0.91175384  0.37757424     0.13400
H796        H  0.26720057  0.81302531  0.39324624     0.14000
C797        C  0.51436767  0.98512196  0.49426647    -0.15600
C798        C  0.49547155  0.50351177  0.02697891    -0.30800
H799        H  0.55051150  0.99088910  0.49127847     0.13400
H800        H  0.45905920  0.49833150  0.02938754     0.14000
C801        C  0.43397677  0.53815323  0.36738434    -0.15600
C802        C  0.46564064  0.54295111  0.34430999    -0.30800
H803        H  0.42625150  0.56581804  0.38426989     0.13400
H804        H  0.47460103  0.51443742  0.32888038     0.14000
C805        C  0.54330676  0.79223399  0.42554883    -0.15600
C806        C  0.57470639  0.78635015  0.40246592    -0.30800
H807        H  0.53371461  0.76408854  0.44090880     0.13400
H808        H  0.58313348  0.81368015  0.38570778     0.14000
C809        C  0.41093278  0.88097660  0.27587649    -0.15600
C810        C  0.40513655  0.84936427  0.30006878    -0.30800
H811        H  0.42833806  0.91140303  0.28544426     0.13400
H812        H  0.38671446  0.81928979  0.29100314     0.14000
C813        C  0.41226791  0.85680584  0.52604934    -0.15600
C814        C  0.40501754  0.88659604  0.05008009    -0.30800
H815        H  0.43094937  0.82718057  0.53585327     0.13400
H816        H  0.38626724  0.91634456  0.04079464     0.14000
O817        O  0.44552060  0.95804225  0.86789004    -0.81000
C818        C  0.40212241  0.86212696  0.98591275     0.98400
O819        O  0.37752933  0.89448914  0.97296372    -0.70100
O820        O  0.44331948  0.95028596  0.97048249    -0.72100
Al821      Al  0.39292349  0.93455892  0.93606421     1.49000
C822        C  0.48422170  0.95913151  0.96572192     0.93600
O823        O  0.51645356  0.86696479  0.91766047    -0.79900
O824        O  0.39604523  0.83922393  0.86131451    -0.73500
Al825      Al  0.47565792  0.91138116  0.89483665     1.90100
O826        O  0.46693072  0.81300075  0.91309363    -0.72500
O827        O  0.34259383  0.85062793  0.91201514    -0.72400
O828        O  0.41948648  0.83625264  0.96477248    -0.78000
O829        O  0.33764224  0.92172695  0.90277895    -0.76200
O830        O  0.42600306  0.89532547  0.91445747    -1.12400
O831        O  0.40425481  0.98537411  0.90708070    -0.71600
C832        C  0.42706534  0.99058101  0.88082204     0.99200
C833        C  0.50809593  0.82662679  0.91862678     0.95600
Al834      Al  0.40782294  0.83928310  0.91295329     1.55600
O835        O  0.49977960  0.94854553  0.93631173    -0.76200
C836        C  0.31888499  0.88414389  0.90114279     0.99700
C837        C  0.42093563  0.85535447  0.83937206     0.94600
O838        O  0.45733704  0.87768493  0.85057616    -0.81500
O839        O  0.54937896  0.61066849  0.66767898    -0.81000
C840        C  0.60578364  0.62189746  0.53347133     0.98400
O841        O  0.58969194  0.64852314  0.55472978    -0.70100
O842        O  0.54420769  0.67419007  0.60697340    -0.73700
Al843      Al  0.60171709  0.64529169  0.60627847     1.49000
C844        C  0.50244898  0.66253338  0.60039083     0.93600
O845        O  0.50488190  0.53906190  0.58244280    -0.79900
O846        O  0.60287955  0.00055429  0.61168466    -0.73500
Al847      Al  0.53006809  0.57656169  0.62368578     1.90100
O848        O  0.56228842  0.53424074  0.54952279    -0.72500
O849        O  0.66876876  0.56098456  0.61675891    -0.72400
O850        O  0.62881692  0.58835686  0.54613177    -0.78000
O851        O  0.66617090  0.63179701  0.60644454    -0.76200
O852        O  0.58100976  0.59001230  0.60475096    -1.12400
O853        O  0.61382878  0.64473910  0.65763114    -0.71600
C854        C  0.58717215  0.63088256  0.67917667     0.99200
C855        C  0.52094545  0.52684030  0.55363544     0.95600
Al856      Al  0.61273469  0.54926980  0.58379315     1.55600
O857        O  0.49204457  0.62249860  0.59979960    -0.76200
C858        C  0.68892963  0.59784162  0.61740849     0.99700
C859        C  0.58024403  0.99654941  0.63827028     0.94600
O860        O  0.55708576  0.52908318  0.65153872    -0.81500
O861        O  0.45313898  0.86042858  0.60180397    -0.81000
C862        C  0.39696083  0.87463413  0.73610070     0.98400
O863        O  0.41226578  0.90122034  0.71458502    -0.70100
O864        O  0.45850561  0.92516088  0.66238262    -0.73700
Al865      Al  0.40054777  0.89676749  0.66283676     1.49000
C866        C  0.50029253  0.91334429  0.66852876     0.93600
O867        O  0.49699941  0.79015760  0.68725582    -0.79900
O868        O  0.40213835  0.75134144  0.65723255    -0.73500
Al869      Al  0.47182265  0.82707131  0.64593708     1.90100
O870        O  0.44080674  0.78694215  0.72144043    -0.72500
O871        O  0.33363561  0.81200258  0.65369300    -0.72400
O872        O  0.37335784  0.84136858  0.72358983    -0.78000
O873        O  0.33580905  0.88326421  0.66216431    -0.76200
O874        O  0.42118334  0.84144577  0.66504820    -1.12400
O875        O  0.38886431  0.89527460  0.61114488    -0.71600
C876        C  0.41574138  0.88083397  0.58983727     0.99200
C877        C  0.48191686  0.77894795  0.71664615     0.95600
Al878      Al  0.38966274  0.80135338  0.68681035     1.55600
O879        O  0.51048779  0.87321196  0.66928979    -0.76200
C880        C  0.31339050  0.84884999  0.65154940     0.99700
C881        C  0.42435042  0.74685253  0.63049932     0.94600
O882        O  0.44358669  0.77945574  0.61853531    -0.81500
O883        O  0.56804216  0.71195320  0.90175194    -0.81000
C884        C  0.60659195  0.61505927  0.78252557     0.98400
O885        O  0.63093549  0.64825381  0.79420916    -0.70100
O886        O  0.56673921  0.70544428  0.79872886    -0.73700
Al887      Al  0.61846619  0.68882761  0.83186699     1.49000
C888        C  0.52625327  0.71461172  0.80441653     0.93600
O889        O  0.49674182  0.62079967  0.85104266    -0.79900
O890        O  0.61930938  0.59559881  0.90769689    -0.73500
Al891      Al  0.53723788  0.66557738  0.87460698     1.90100
O892        O  0.54690664  0.56732395  0.85831730    -0.72500
O893        O  0.66930450  0.60480488  0.85421466    -0.72400
O894        O  0.59088322  0.58941737  0.80454839    -0.78000
O895        O  0.67565768  0.67582870  0.86302628    -0.76200
O896        O  0.58651342  0.64983555  0.85433978    -1.12400
O897        O  0.60929917  0.73910570  0.86242197    -0.71600
C898        C  0.58756624  0.74413993  0.88941860     0.99200
C899        C  0.50570543  0.58042474  0.85114776     0.95600
Al900      Al  0.60506802  0.59389748  0.85607165     1.55600
O901        O  0.51183776  0.70356567  0.83408555    -0.76200
C902        C  0.69406709  0.63815044  0.86336896     0.99700
C903        C  0.59355865  0.61046111  0.92971770     0.94600
O904        O  0.55624006  0.63143481  0.91846427    -0.81500
O905        O  0.05900128  0.85022653  0.91475195    -0.81000
C906        C  0.12489626  0.85628255  0.77923005     0.98400
O907        O  0.10396183  0.88354520  0.79712934    -0.70100
O908        O  0.05248052  0.91345001  0.84467977    -0.73700
Al909      Al  0.11084829  0.88496391  0.85010189     1.49000
C910        C  0.01066327  0.90217881  0.84217751     0.93600
O911        O  0.01501028  0.78062024  0.82788728    -0.79900
O912        O  0.10662282  0.73917627  0.85963491    -0.73500
Al913      Al  0.03966373  0.81700795  0.87019730     1.90100
O914        O  0.07300347  0.77466237  0.79506647    -0.72500
O915        O  0.17708267  0.79912310  0.86720201    -0.72400
O916        O  0.14655809  0.82455626  0.79571067    -0.78000
O917        O  0.17566261  0.87015806  0.85614362    -0.76200
O918        O  0.09063421  0.83003998  0.85086554    -1.12400
O919        O  0.11847109  0.88995870  0.90254705    -0.71600
C920        C  0.09433485  0.87415178  0.92537650     0.99200
C921        C  0.03085676  0.76903569  0.79866191     0.95600
Al922      Al  0.12325928  0.78803557  0.83153297     1.55600
O923        O  0.00043184  0.86296775  0.84750982    -0.76200
C924        C  0.19724220  0.83619285  0.86906919     0.99700
C925        C  0.08352766  0.73606212  0.88574600     0.94600
O926        O  0.06667439  0.76973789  0.89800066    -0.81500
O927        O  0.93910493  0.71382247  0.60904336    -0.81000
C928        C  0.89536223  0.61443485  0.72631330     0.98400
O929        O  0.87433545  0.64968092  0.71580399    -0.70100
O930        O  0.94245079  0.70326210  0.71311107    -0.73700
Al931      Al  0.88992009  0.69031295  0.67926268     1.49000
C932        C  0.98297762  0.71209752  0.70727959     0.93600
O933        O  0.00947468  0.62124704  0.65663144    -0.79900
O934        O  0.88808694  0.59646713  0.60073869    -0.73500
Al935      Al  0.96952550  0.66655641  0.63482965     1.90100
O936        O  0.95867120  0.56816714  0.65226863    -0.72500
O937        O  0.83581459  0.60874108  0.65199745    -0.72400
O938        O  0.91134464  0.58971268  0.70371366    -0.78000
O939        O  0.83266874  0.68052756  0.64718357    -0.76200
O940        O  0.92029143  0.65091166  0.65537414    -1.12400
O941        O  0.90191811  0.74148041  0.65084415    -0.71600
C942        C  0.92254869  0.74651029  0.62328234     0.99200
C943        C  0.00010520  0.58114552  0.65787109     0.95600
Al944      Al  0.90018801  0.59543263  0.65241981     1.55600
O945        O  0.99619911  0.70297370  0.67659832    -0.76200
C946        C  0.81279196  0.64344059  0.64400759     0.99700
C947        C  0.91355744  0.61120585  0.57869646     0.94600
O948        O  0.94989499  0.63360497  0.58995709    -0.81500
O949        O  0.05311367  0.96706688  0.63953070    -0.81000
C950        C  0.11190370  0.86362538  0.53203959     0.98400
O951        O  0.13422820  0.89798752  0.54364879    -0.70100
O952        O  0.06851004  0.95520174  0.54097604    -0.73700
Al953      Al  0.11671180  0.94044182  0.57822072     1.49000
C954        C  0.02619117  0.96186254  0.54242189     0.93600
O955        O  0.99253299  0.87037657  0.58963056    -0.79900
O956        O  0.10908585  0.85559526  0.65906522    -0.73500
Al957      Al  0.02822556  0.91783515  0.61342177     1.90100
O958        O  0.04367552  0.81936041  0.60592847    -0.72500
O959        O  0.16742677  0.85903881  0.60942913    -0.72400
O960        O  0.09518487  0.83856703  0.55434023    -0.78000
O961        O  0.17080758  0.93044055  0.61365388    -0.76200
O962        O  0.08199766  0.90238860  0.59939699    -1.12400
O963        O  0.10384610  0.99129147  0.60618657    -0.71600
C964        C  0.07794763  0.99752305  0.63032772     0.99200
C965        C  0.00243843  0.83058840  0.59484983     0.95600
Al966      Al  0.10224593  0.84756123  0.60656950     1.55600
O967        O  0.00775070  0.95112758  0.57014109    -0.76200
C968        C  0.19035785  0.89350502  0.61826399     0.99700
C969        C  0.07800492  0.87120770  0.67652869     0.94600
O970        O  0.04085954  0.88785508  0.65965941    -0.81500
O971        O  0.94560390  0.58575517  0.83737619    -0.81000
C972        C  0.88890366  0.59018563  0.97608517     0.98400
O973        O  0.90088651  0.62276435  0.95864383    -0.70100
O974        O  0.96337430  0.65513828  0.92530447    -0.73700
Al975      Al  0.90446572  0.63006258  0.90807863     1.49000
C976        C  0.00020989  0.65250166  0.91192671     0.93600
O977        O  0.00512945  0.54565923  0.92986812    -0.79900
O978        O  0.89554562  0.99918172  0.88035042    -0.73500
Al979      Al  0.97543605  0.56609127  0.88352672     1.90100
O980        O  0.94564254  0.50482762  0.94258385    -0.72500
O981        O  0.83196657  0.54793423  0.88990110    -0.72400
O982        O  0.87908581  0.55390576  0.96037171    -0.78000
O983        O  0.84058888  0.61919343  0.89428233    -0.76200
O984        O  0.92302364  0.57510676  0.90221289    -1.12400
O985        O  0.90668583  0.64257383  0.85671610    -0.71600
C986        C  0.91944698  0.61931518  0.83095894     0.99200
C987        C  0.98779357  0.51758869  0.94959372     0.95600
Al988      Al  0.89074778  0.52897436  0.91508433     1.55600
O989        O  0.00617577  0.62073384  0.89173097    -0.76200
C990        C  0.81526583  0.58616187  0.88637441     0.99700
C991        C  0.93215143  0.98761293  0.86821614     0.94600
O992        O  0.96641159  0.50829226  0.86788964    -0.81500
C993        C  0.01681439  0.49912912  0.98176350    -0.15600
C994        C  0.99777706  0.98375983  0.51174091    -0.30800
H995        H  0.05967267  0.00941385  0.98695401     0.13400
H996        H  0.96114358  0.98808824  0.51389186     0.14000
C997        C  0.90006852  0.60146919  0.53921768    -0.15600
C998        C  0.88910886  0.59341640  0.01605365    -0.30800
H999        H  0.88045362  0.57161583  0.53157950     0.13400
H1000       H  0.86454829  0.57409782  0.02886707     0.14000
C1001       C  0.90314476  0.63155132  0.79251410    -0.15600
C1002       C  0.90362833  0.60213648  0.76525793    -0.30800
H1003       H  0.89124665  0.66494050  0.78650910     0.13400
H1004       H  0.91557798  0.56882068  0.77165726     0.14000
C1005       C  0.03658689  0.54755676  0.66506375    -0.15600
C1006       C  0.06836014  0.54184471  0.64224589    -0.30800
H1007       H  0.02717366  0.51956906  0.68067873     0.13400
H1008       H  0.07698090  0.56908646  0.62548660     0.14000
C1009       C  0.93448287  0.79114667  0.61133251    -0.15600
C1010       C  0.96697669  0.79569262  0.58887789    -0.30800
H1011       H  0.92641007  0.81895987  0.62792633     0.13400
H1012       H  0.97713879  0.76696454  0.57431510     0.14000
C1013       C  0.99978804  0.74763518  0.76836047    -0.15600
C1014       C  0.01468353  0.73418847  0.73689545    -0.30800
H1015       H  0.96388463  0.74234310  0.77227769     0.13400
H1016       H  0.05042309  0.73982606  0.73269787     0.14000
C1017       C  0.03363716  0.68925867  0.91712017    -0.15600
C1018       C  0.06944195  0.69246189  0.89773925    -0.30800
H1019       H  0.02279354  0.71802769  0.93128616     0.13400
H1020       H  0.07995946  0.66390805  0.88315347     0.14000
C1021       C  0.93949243  0.94284516  0.85360128    -0.15600
C1022       C  0.97519075  0.93717085  0.83421301    -0.30800
H1023       H  0.92599292  0.91511365  0.86719749     0.13400
H1024       H  0.98757462  0.96602156  0.82122297     0.14000
C1025       C  0.12295398  0.85919405  0.73886889    -0.15600
C1026       C  0.08375060  0.87134757  0.71725299    -0.30800
H1027       H  0.15194547  0.84624078  0.72655895     0.13400
H1028       H  0.05427959  0.88235536  0.73002449     0.14000
C1029       C  0.10848430  0.88356657  0.96524910    -0.15600
C1030       C  0.10286032  0.85403752  0.49195356    -0.30800
H1031       H  0.12636716  0.91432046  0.97283891     0.13400
H1032       H  0.08490483  0.82362314  0.48321443     0.14000
C1033       C  0.74474422  0.63252596  0.87380996    -0.15600
C1034       C  0.76512437  0.59255920  0.87379232    -0.30800
H1035       H  0.76548155  0.66152409  0.88214875     0.13400
H1036       H  0.74424615  0.56355270  0.86576857     0.14000
C1037       C  0.26316421  0.85174448  0.63722105    -0.15600
C1038       C  0.24039414  0.89052910  0.63320668    -0.30800
H1039       H  0.24465381  0.82133362  0.62947918     0.13400
H1040       H  0.25899354  0.92096200  0.64066615     0.14000
C1041       C  0.49605604  0.73950115  0.77594280    -0.15600
C1042       C  0.51209686  0.75487744  0.74563374    -0.30800
H1043       H  0.46038913  0.74570758  0.78013559     0.13400
H1044       H  0.54780345  0.74873414  0.74152727     0.14000
C1045       C  0.73945038  0.60136057  0.63003211    -0.15600
C1046       C  0.76217242  0.64022701  0.63159688    -0.30800
H1047       H  0.75833568  0.57131158  0.63813435     0.13400
H1048       H  0.74324506  0.67034128  0.62380403     0.14000
C1049       C  0.60137581  0.63803296  0.71851507    -0.15600
C1050       C  0.59436992  0.60720108  0.74293729    -0.30800
H1051       H  0.62045183  0.66785832  0.72730737     0.13400
H1052       H  0.57645545  0.57688481  0.73374542     0.14000
C1053       C  0.59523956  0.62947271  0.49369286    -0.15600
C1054       C  0.60776992  0.60322689  0.96925469    -0.30800
H1055       H  0.57749438  0.65978247  0.48447574     0.13400
H1056       H  0.62744233  0.57375562  0.97787841     0.14000
C1057       C  0.46712103  0.69758593  0.59460644    -0.15600
C1058       C  0.43455361  0.70233275  0.61692910    -0.30800
H1059       H  0.47768544  0.72641028  0.58057499     0.13400
H1060       H  0.42548698  0.67431123  0.63264852     0.14000
C1061       C  0.56869919  0.95226491  0.65145095    -0.15600
C1062       C  0.53587715  0.94835180  0.67369482    -0.30800
H1063       H  0.57739375  0.92388983  0.63575871     0.13400
H1064       H  0.52567066  0.97757527  0.68761662     0.14000
C1065       C  0.26893202  0.87937692  0.88692615    -0.15600
C1066       C  0.24679207  0.84021634  0.88508383    -0.30800
H1067       H  0.25005908  0.90890858  0.87724840     0.13400
H1068       H  0.26547200  0.81063283  0.89487693     0.14000
C1069       C  0.51348174  0.98351271  0.99485319    -0.15600
C1070       C  0.49205726  0.50227455  0.52427848    -0.30800
H1071       H  0.54965632  0.98884775  0.99174503     0.13400
H1072       H  0.45577826  0.49680499  0.52695842     0.14000
C1073       C  0.43926915  0.53912557  0.86716866    -0.15600
C1074       C  0.46946514  0.54648657  0.84345609    -0.30800
H1075       H  0.42993608  0.56599327  0.88421355     0.13400
H1076       H  0.47927409  0.51883767  0.82742516     0.14000
C1077       C  0.54534739  0.79348583  0.92538643    -0.15600
C1078       C  0.57751788  0.78883566  0.90267441    -0.30800
H1079       H  0.53639912  0.76496684  0.94058483     0.13400
H1080       H  0.58532899  0.81653883  0.88608695     0.14000
C1081       C  0.40933099  0.88136634  0.77594121    -0.15600
C1082       C  0.40607134  0.84879804  0.79987096    -0.30800
H1083       H  0.42492839  0.91252954  0.78565049     0.13400
H1084       H  0.38959268  0.81787095  0.79062352     0.14000
C1085       C  0.41282886  0.85536911  0.02585773    -0.15600
C1086       C  0.40254553  0.88735084  0.55018644    -0.30800
H1087       H  0.43057102  0.82524989  0.03558150     0.13400
H1088       H  0.38269674  0.91648070  0.54083648     0.14000
loop_ 
_geom_bond_atom_site_label_1 
_geom_bond_atom_site_label_2 
_geom_bond_distance 
_geom_bond_site_symmetry_2 
_ccdc_geom_bond_type 
O1           C16   1.250       .  A
O1           Al9   1.873       .  S
C2           O12   1.263       .  A
C2            O3   1.269       .  A
C2          C269   1.476       .  S
O3           Al5   1.934       .  S
O4            C6   1.255       .  A
O4           Al5   1.844       .  S
Al5          O13   1.904       .  S
Al5          O15   1.932       .  S
Al5          O14   1.793       .  S
C6           O19   1.274       .  A
C6          C253   1.466       .  S
O7           C17   1.256       .  A
O7           Al9   1.919       .  S
O8           C21   1.265       .  A
O8          Al18   1.892       .  S
Al9          O22   1.934       .  S
Al9          O19   1.949       .  S
Al9          O14   1.778       .  S
O10          C17   1.252       .  A
O10         Al18   1.887       .  S
O11          C20   1.261       .  A
O11         Al18   1.910       .  S
O12         Al18   1.896       .  S
O13          C20   1.263       .  A
O14         Al18   1.782       .  S
O15          C16   1.259       .  A
C16         C801   1.486       .  S
C17         C261   1.477       .  S
C20         C249   1.469       .  S
C21          O22   1.273       .  A
C21         C266   1.476       .  S
O23          C38   1.272       .  A
O23         Al31   1.925       .  S
C24          O34   1.270       .  A
C24          O25   1.259       .  A
C24         C237   1.466   1_554  S
O25         Al27   1.876       .  S
O26          C28   1.255       .  A
O26         Al27   1.897       .  S
Al27         O35   1.921       .  S
Al27         O37   1.871       .  S
Al27         O36   1.783       .  S
C28          O41   1.256       .  A
C28         C241   1.475       .  S
O29          C39   1.271       .  A
O29         Al31   1.942       .  S
O30          C43   1.261       .  A
O30        Al584   1.936       .  S
Al31         O44   1.876       .  S
Al31         O41   1.914       .  S
Al31         O36   1.777       .  S
O32          C39   1.255       .  A
O32         Al40   1.847       .  S
O33          C42   1.262       .  A
O33         Al40   1.903       .  S
O34         Al40   1.934       .  S
O35          C42   1.264       .  A
O36         Al40   1.787       .  S
O37          C38   1.260       .  A
C38         C233   1.460       .  S
C39         C254   1.465       .  S
Al40        O574   1.936   1_545  S
C42         C229   1.474       .  S
C43         O588   1.254       .  A
C43         C245   1.490       .  S
O44         C587   1.252   1_545  A
O45          C60   1.275       .  A
O45         Al53   1.936       .  S
C46          O56   1.271       .  A
C46          O47   1.264       .  A
C46         C265   1.479       .  S
O47         Al49   1.896       .  S
O48          C50   1.252       .  A
O48         Al49   1.890       .  S
Al49         O57   1.916       .  S
Al49         O59   1.894       .  S
Al49         O58   1.787       .  S
C50          O63   1.255       .  A
C50         C246   1.478       .  S
O51          C61   1.271       .  A
O51         Al53   1.940       .  S
O52          C65   1.261       .  A
O52         Al62   1.932       .  S
Al53         O66   1.869       .  S
Al53         O63   1.921       .  S
Al53         O58   1.780       .  S
O54          C61   1.256       .  A
O54         Al62   1.858       .  S
O55          C64   1.262       .  A
O55         Al62   1.915       .  S
O56         Al62   1.936       .  S
O57          C64   1.260       .  A
O58         Al62   1.791       .  S
O59          C60   1.267       .  A
C60         C270   1.476       .  S
C61         C226   1.472       .  S
C64         C221   1.481       .  S
C65          O66   1.252       .  A
C65         C242   1.488       .  S
O67          C82   1.253       .  A
O67         Al75   1.883       .  S
C68          O78   1.260       .  A
C68          O69   1.270       .  A
C68         C234   1.465       .  S
O69         Al71   1.928       .  S
O70          C72   1.257       .  A
O70         Al71   1.856       .  S
Al71         O79   1.910       .  S
Al71         O81   1.932       .  S
Al71         O80   1.787       .  S
C72          O85   1.274       .  A
C72         C225   1.473       .  S
O73          C83   1.257       .  A
O73         Al75   1.923       .  S
O74          C87   1.262       .  A
O74         Al84   1.873       .  S
Al75         O88   1.934       .  S
Al75         O85   1.950       .  S
Al75         O80   1.775       .  S
O76          C83   1.253       .  A
O76         Al84   1.890       .  S
O77          C86   1.262       .  A
O77         Al84   1.916       .  S
O78         Al84   1.881       .  S
O79          C86   1.264       .  A
O80         Al84   1.787       .  S
O81          C82   1.260       .  A
C82         C262   1.490       .  S
C83         C258   1.478       .  S
C86         C217   1.475       .  S
C87          O88   1.275       .  A
C87         C238   1.465       .  S
O89         C104   1.269       .  A
O89         Al97   1.918       .  S
C90         O100   1.258       .  A
C90          O91   1.268       .  A
C90         C209   1.477       .  S
O91         Al93   1.933       .  S
O92          C94   1.252       .  A
O92         Al93   1.887       .  S
Al93        O101   1.909       .  S
Al93        O103   1.919       .  S
Al93        O102   1.774       .  S
C94         O107   1.255       .  A
C94         C206   1.482   1_455  S
O95         C105   1.277       .  A
O95         Al97   1.946       .  S
O96         C109   1.251       .  A
O96        Al106   1.911       .  S
Al97        O110   1.874       .  S
Al97        O107   1.919       .  S
Al97        O102   1.779       .  S
O98         C105   1.264       .  A
O98        Al106   1.873       .  S
O99         C108   1.268       .  A
O99        Al106   1.910       .  S
O100       Al106   1.919       .  S
O101        C108   1.265       .  A
O102       Al106   1.799       .  S
O103        C104   1.269       .  A
C104        C213   1.486       .  S
C105        C197   1.472   1_455  S
C108        C250   1.471       .  S
C109        O110   1.248       .  A
C109        C202   1.478       .  S
O111        C126   1.254       .  A
O111       Al119   1.884       .  S
C112        O122   1.254       .  A
C112        O113   1.267       .  A
C112        C186   1.460       .  S
O113       Al115   1.928       .  S
O114        C116   1.258       .  A
O114       Al115   1.861       .  S
Al115       O123   1.900       .  S
Al115       O125   1.934       .  S
Al115       O124   1.787       .  S
C116        O129   1.273       .  A
C116        C198   1.474   1_655  S
O117        C127   1.255       .  A
O117       Al119   1.904   1_455  S
O118        C131   1.257       .  A
O118       Al128   1.865       .  S
Al119       O132   1.933       .  S
Al119       O129   1.951       .  S
Al119       O124   1.776       .  S
O120        C127   1.256   1_655  A
O120       Al128   1.894       .  S
O121        C130   1.266       .  A
O121       Al128   1.925       .  S
O122       Al128   1.865       .  S
O123        C130   1.263       .  A
O124       Al128   1.786       .  S
O125        C126   1.260       .  A
C126        C193   1.487       .  S
C127        C189   1.468       .  S
C130        C230   1.473       .  S
C131        O132   1.272       .  A
C131        C181   1.459       .  S
O133        C148   1.255       .  A
O133       Al141   1.871       .  S
C134        O144   1.272       .  A
C134        O135   1.270       .  A
C134        C214   1.491   1_554  S
O135       Al137   1.931       .  S
O136        C138   1.255       .  A
O136       Al137   1.860       .  S
Al137       O145   1.913       .  S
Al137       O147   1.914       .  S
Al137       O146   1.793       .  S
C138        O151   1.262       .  A
C138        C178   1.460   1_455  S
O139        C149   1.253   1_655  A
O139       Al141   1.914   1_655  S
O140        C153   1.276       .  A
O140       Al150   1.930       .  S
Al141       O154   1.914       .  S
Al141       O151   1.905       .  S
Al141       O146   1.786       .  S
O142        C149   1.252       .  A
O142       Al150   1.894       .  S
O143        C152   1.256       .  A
O143       Al150   1.910       .  S
O144       Al150   1.924       .  S
O145        C152   1.259       .  A
O146       Al150   1.780       .  S
O147        C148   1.258       .  A
C148        C734   1.480       .  S
C149        C194   1.475   1_455  S
C152        C222   1.480       .  S
C153        O154   1.268       .  A
C153        C210   1.479       .  S
O155        C170   1.272       .  A
O155       Al163   1.923       .  S
C156        O166   1.270       .  A
C156        O157   1.255       .  A
C156        C182   1.465       .  S
O157       Al159   1.869       .  S
O158        C160   1.254   1_655  A
O158       Al159   1.886       .  S
Al159       O167   1.916       .  S
Al159       O169   1.865       .  S
Al159       O168   1.787       .  S
C160        O173   1.254       .  A
C160        C201   1.465       .  S
O161        C171   1.271       .  A
O161       Al163   1.942       .  S
O162        C175   1.263       .  A
O162       Al716   1.943       .  S
Al163       O176   1.886       .  S
Al163       O173   1.902   1_655  S
Al163       O168   1.778       .  S
O164        C171   1.257       .  A
O164       Al172   1.845       .  S
O165        C174   1.266       .  A
O165       Al172   1.910       .  S
O166       Al172   1.937       .  S
O167        C174   1.264       .  A
O168       Al172   1.782       .  S
O169        C170   1.258       .  A
C170        C185   1.458       .  S
C171        C177   1.466   1_645  S
Al172       O706   1.945   1_545  S
C174        C218   1.475       .  S
C175        O720   1.253       .  A
C175        C205   1.493       .  S
O176        C719   1.253   1_545  A
C177        C994   1.349   1_455  D
C177        H723   1.087       .  S
C178        C993   1.345   1_654  D
C178        H180   1.087       .  S
H179        C721   1.086       .  S
C181        C454   1.335       .  D
C181        H183   1.086       .  S
C182        C453   1.335       .  D
C182        H184   1.088       .  S
C185        C186   1.335       .  D
C185        H187   1.087       .  S
C186        H188   1.088       .  S
C189        C190   1.346       .  D
C189        H191   1.087       .  S
C190        C692   1.480   1_545  S
C190        H192   1.087       .  S
C193        C194   1.348       .  D
C193        H195   1.087       .  S
C194        H196   1.087       .  S
C197        C198   1.353   1_655  D
C197        H199   1.087       .  S
C198        H200   1.086       .  S
C201        C202   1.344       .  D
C201        H203   1.087       .  S
C202        H204   1.087       .  S
C205        C206   1.353       .  D
C205        H207   1.086       .  S
C206        H208   1.087       .  S
C209        C210   1.339       .  D
C209        H211   1.087       .  S
C210        H212   1.088       .  S
C213        C486   1.354       .  D
C213        H215   1.086       .  S
C214        C485   1.356       .  D
C214        H216   1.087       .  S
C217        C218   1.351       .  D
C217        H219   1.086       .  S
C218        H220   1.086       .  S
C221        C222   1.352       .  D
C221        H223   1.086       .  S
C222        H224   1.086       .  S
C225        C226   1.356       .  D
C225        H227   1.086       .  S
C226        H228   1.086       .  S
C229        C230   1.347       .  D
C229        H231   1.087       .  S
C230        H232   1.087       .  S
C233        C234   1.339       .  D
C233        H235   1.087       .  S
C234        H236   1.088       .  S
C237        C510   1.338       .  D
C237        H239   1.087       .  S
C238        C509   1.338       .  D
C238        H240   1.087       .  S
C241        C242   1.351       .  D
C241        H243   1.087       .  S
C242        H244   1.087       .  S
C245        C246   1.350       .  D
C245        H247   1.087       .  S
C246        H248   1.087       .  S
C249        C250   1.350       .  D
C249        H251   1.086       .  S
C250        H252   1.086       .  S
C253       C1070   1.356       .  D
C253        H255   1.086       .  S
C254       C1069   1.353   1_544  D
C254        H256   1.087   1_545  S
C257        C560   1.490   1_545  S
C257        C258   1.349       .  D
C257        H259   1.087       .  S
C258        H260   1.087       .  S
C261        C262   1.349       .  D
C261        H263   1.087       .  S
C262        H264   1.087       .  S
C265        C266   1.345       .  D
C265        H267   1.087       .  S
C266        H268   1.086       .  S
C269        C542   1.347       .  D
C269        H271   1.087       .  S
C270        C541   1.348       .  D
C270        H272   1.086       .  S
O273        C288   1.257       .  A
O273       Al281   1.881       .  S
C274        O284   1.269       .  A
C274        O275   1.272       .  A
C274        C541   1.481   1_556  S
O275       Al277   1.930       .  S
O276        C278   1.255       .  A
O276       Al277   1.862       .  S
Al277       O285   1.914       .  S
Al277       O287   1.924       .  S
Al277       O286   1.784       .  S
C278        O291   1.263       .  A
C278        C525   1.457       .  S
O279        C289   1.256       .  A
O279       Al281   1.919       .  S
O280        C293   1.273       .  A
O280       Al290   1.913       .  S
Al281       O294   1.919       .  S
Al281       O291   1.907       .  S
Al281       O286   1.778       .  S
O282        C289   1.254       .  A
O282       Al290   1.898       .  S
O283        C292   1.257       .  A
O283       Al290   1.913       .  S
O284       Al290   1.911       .  S
O285        C292   1.261       .  A
O286       Al290   1.779       .  S
O287        C288   1.261       .  A
C288       C1073   1.485       .  S
C289        C533   1.472       .  S
C292        C521   1.477       .  S
C293        O294   1.269       .  A
C293        C538   1.472       .  S
O295        C310   1.272       .  A
O295       Al303   1.927       .  S
C296        O306   1.271       .  A
C296        O297   1.258       .  A
C296        C509   1.468       .  S
O297       Al299   1.876       .  S
O298        C300   1.255       .  A
O298       Al299   1.892       .  S
Al299       O307   1.917       .  S
Al299       O309   1.868       .  S
Al299       O308   1.784       .  S
C300        O313   1.255       .  A
C300        C513   1.470       .  S
O301        C311   1.270       .  A
O301       Al303   1.939       .  S
O302        C315   1.264       .  A
O302       Al856   1.950       .  S
Al303       O316   1.879       .  S
Al303       O313   1.910       .  S
Al303       O308   1.776       .  S
O304        C311   1.254       .  A
O304       Al312   1.843       .  S
O305        C314   1.262       .  A
O305       Al312   1.903       .  S
O306       Al312   1.936       .  S
O307        C314   1.263       .  A
O308       Al312   1.783       .  S
O309        C310   1.260       .  A
C310        C505   1.458       .  S
C311        C526   1.463       .  S
Al312       O846   1.943       .  S
C314        C501   1.473       .  S
C315        O860   1.252       .  A
C315        C517   1.497       .  S
O316        C859   1.253   1_545  A
O317        C332   1.274       .  A
O317       Al325   1.921       .  S
C318        O328   1.263       .  A
C318        O319   1.269       .  A
C318        C537   1.469       .  S
O319       Al321   1.916       .  S
O320        C322   1.250       .  A
O320       Al321   1.889       .  S
Al321       O329   1.910       .  S
Al321       O331   1.906       .  S
Al321       O330   1.783       .  S
C322        O335   1.252       .  A
C322        C518   1.486       .  S
O323        C333   1.274       .  A
O323       Al325   1.935       .  S
O324        C337   1.253       .  A
O324       Al334   1.910       .  S
Al325       O338   1.863       .  S
Al325       O335   1.918       .  S
Al325       O330   1.782       .  S
O326        C333   1.263       .  A
O326       Al334   1.881       .  S
O327        C336   1.264       .  A
O327       Al334   1.914       .  S
O328       Al334   1.923       .  S
O329        C336   1.260       .  A
O330       Al334   1.799       .  S
O331        C332   1.270       .  A
C332        C542   1.477       .  S
C333        C498   1.476       .  S
C336        C493   1.475       .  S
C337        O338   1.248       .  A
C337        C514   1.482       .  S
O339        C354   1.253       .  A
O339       Al347   1.882       .  S
C340        O350   1.260       .  A
C340        O341   1.268       .  A
C340        C506   1.465       .  S
O341       Al343   1.919       .  S
O342        C344   1.258       .  A
O342       Al343   1.865       .  S
Al343       O351   1.909       .  S
Al343       O353   1.917       .  S
Al343       O352   1.790       .  S
C344        O357   1.272       .  A
C344        C497   1.478       .  S
O345        C355   1.254       .  A
O345       Al347   1.918       .  S
O346        C359   1.263       .  A
O346       Al356   1.877       .  S
Al347       O360   1.930       .  S
Al347       O357   1.944       .  S
Al347       O352   1.780       .  S
O348        C355   1.251       .  A
O348       Al356   1.888       .  S
O349        C358   1.261       .  A
O349       Al356   1.918       .  S
O350       Al356   1.885       .  S
O351        C358   1.262       .  A
O352       Al356   1.791       .  S
O353        C354   1.257       .  A
C354        C534   1.485       .  S
C355        C530   1.478       .  S
C358        C489   1.477       .  S
C359        O360   1.275       .  A
C359        C510   1.465       .  S
O361        C376   1.269       .  A
O361       Al369   1.925       .  S
C362        O372   1.261       .  A
C362        O363   1.268       .  A
C362        C481   1.479       .  S
O363       Al365   1.927       .  S
O364        C366   1.254       .  A
O364       Al365   1.889       .  S
Al365       O373   1.916       .  S
Al365       O375   1.919       .  S
Al365       O374   1.772       .  S
C366        O379   1.254       .  A
C366        C478   1.475   1_455  S
O367        C377   1.273       .  A
O367       Al369   1.941       .  S
O368        C381   1.257       .  A
O368       Al378   1.923       .  S
Al369       O382   1.867       .  S
Al369       O379   1.912       .  S
Al369       O374   1.780       .  S
O370        C377   1.262       .  A
O370       Al378   1.878       .  S
O371        C380   1.269       .  A
O371       Al378   1.919       .  S
O372       Al378   1.925       .  S
O373        C380   1.265       .  A
O374       Al378   1.795       .  S
O375        C376   1.269       .  A
C376        C485   1.488       .  S
C377        C469   1.473       .  S
C380        C522   1.480       .  S
C381        O382   1.247       .  A
C381        C474   1.474       .  S
O383        C398   1.254       .  A
O383       Al391   1.883       .  S
C384        O394   1.254       .  A
C384        O385   1.268       .  A
C384        C458   1.456       .  S
O385       Al387   1.925       .  S
O386        C388   1.258       .  A
O386       Al387   1.866       .  S
Al387       O395   1.906       .  S
Al387       O397   1.934       .  S
Al387       O396   1.784       .  S
C388        O401   1.271       .  A
C388        C470   1.475   1_655  S
O389        C399   1.253       .  A
O389       Al391   1.901   1_455  S
O390        C403   1.257       .  A
O390       Al400   1.865       .  S
Al391       O404   1.932       .  S
Al391       O401   1.946       .  S
Al391       O396   1.775       .  S
O392        C399   1.256   1_655  A
O392       Al400   1.893       .  S
O393        C402   1.264       .  A
O393       Al400   1.915       .  S
O394       Al400   1.862       .  S
O395        C402   1.264       .  A
O396       Al400   1.787       .  S
O397        C398   1.261       .  A
C398        C465   1.486       .  S
C399        C461   1.465       .  S
C402        C502   1.473       .  S
C403        O404   1.273       .  A
C403        C453   1.463       .  S
O405        C420   1.254       .  A
O405       Al413   1.869       .  S
C406        O416   1.271       .  A
C406        O407   1.271       .  A
C406        C486   1.487       .  S
O407       Al409   1.934       .  S
O408        C410   1.254       .  A
O408       Al409   1.855       .  S
Al409       O417   1.915       .  S
Al409       O419   1.930       .  S
Al409       O418   1.789       .  S
C410        O423   1.266       .  A
C410        C450   1.458   1_455  S
O411        C421   1.256       .  A
O411       Al413   1.916   1_655  S
O412        C425   1.274       .  A
O412       Al422   1.925       .  S
Al413       O426   1.924       .  S
Al413       O423   1.918       .  S
Al413       O418   1.775       .  S
O414        C421   1.254   1_455  A
O414       Al422   1.899       .  S
O415        C424   1.258       .  A
O415       Al422   1.905       .  S
O416       Al422   1.918       .  S
O417        C424   1.262       .  A
O418       Al422   1.775       .  S
O419        C420   1.261       .  A
C420       C1006   1.482       .  S
C421        C466   1.473       .  S
C424        C494   1.475       .  S
C425        O426   1.270       .  A
C425        C482   1.482       .  S
O427        C442   1.270       .  A
O427       Al435   1.884       .  S
C428        O438   1.261       .  A
C428        O429   1.252       .  A
C428        C454   1.466   1_556  S
O429       Al431   1.869       .  S
O430        C432   1.248   1_655  A
O430       Al431   1.892       .  S
Al431       O439   1.885       .  S
Al431       O441   1.905       .  S
Al431       O440   1.798       .  S
C432        O445   1.246       .  A
C432        C473   1.470       .  S
O433        C443   1.270   1_455  A
O433       Al435   1.906   1_455  S
O434        C447   1.255       .  A
O434       Al988   1.930       .  S
Al435       O448   1.862       .  S
Al435       O445   1.885   1_655  S
Al435       O440   1.789       .  S
O436        C443   1.265       .  A
O436       Al444   1.882       .  S
O437        C446   1.258       .  A
O437       Al444   1.903       .  S
O438       Al444   1.898       .  S
O439        C446   1.255       .  A
O440       Al444   1.796       .  S
O441        C442   1.266       .  A
C442        C457   1.458       .  S
C443        C449   1.462   1_655  S
Al444       O978   1.942   1_545  S
C446        C490   1.476       .  S
C447        O992   1.245       .  A
C447        C477   1.483       .  S
O448        C991   1.249   1_545  A
C449        C722   1.348   1_546  D
C449        H995   1.086       .  S
C450        C721   1.351   1_655  D
C450        H452   1.087       .  S
H451        C993   1.087       .  S
C453        H455   1.087       .  S
C454        H456   1.088       .  S
C457        C458   1.335       .  D
C457        H459   1.087       .  S
C458        H460   1.087       .  S
C461        C462   1.345       .  D
C461        H463   1.087       .  S
C462        C964   1.478   1_545  S
C462        H464   1.087       .  S
C465        C466   1.348       .  D
C465        H467   1.087       .  S
C466        H468   1.087       .  S
C469        C470   1.351       .  D
C469        H471   1.087   1_455  S
C470        H472   1.087       .  S
C473        C474   1.349       .  D
C473        H475   1.087       .  S
C474        H476   1.086       .  S
C477        C478   1.349       .  D
C477        H479   1.086       .  S
C478        H480   1.088       .  S
C481        C482   1.342       .  D
C481        H483   1.087       .  S
C482        H484   1.088       .  S
C485        H487   1.086       .  S
C486        H488   1.087       .  S
C489        C490   1.349       .  D
C489        H491   1.087       .  S
C490        H492   1.087       .  S
C493        C494   1.352       .  D
C493        H495   1.086       .  S
C494        H496   1.086       .  S
C497        C498   1.354       .  D
C497        H499   1.086       .  S
C498        H500   1.087       .  S
C501        C502   1.349       .  D
C501        H503   1.087       .  S
C502        H504   1.086       .  S
C505        C506   1.339       .  D
C505        H507   1.087       .  S
C506        H508   1.087       .  S
C509        H511   1.087       .  S
C510        H512   1.087       .  S
C513        C514   1.346       .  D
C513        H515   1.088       .  S
C514        H516   1.087       .  S
C517        C518   1.356       .  D
C517        H519   1.087       .  S
C518        H520   1.087       .  S
C521        C522   1.354       .  D
C521        H523   1.086       .  S
C522        H524   1.086       .  S
C525        C798   1.348   1_556  D
C525        H527   1.087       .  S
C526        C797   1.354   1_545  D
C526        H528   1.087   1_545  S
C529        C832   1.490   1_545  S
C529        C530   1.351       .  D
C529        H531   1.087       .  S
C530        H532   1.087       .  S
C533        C534   1.347       .  D
C533        H535   1.087       .  S
C534        H536   1.087       .  S
C537        C538   1.339       .  D
C537        H539   1.086       .  S
C538        H540   1.088       .  S
C541        H543   1.087       .  S
C542        H544   1.086       .  S
O545        C560   1.253       .  A
O545       Al553   1.884       .  S
C546        O556   1.260       .  A
C546        O547   1.269       .  A
C546        C813   1.468       .  S
O547       Al549   1.929       .  S
O548        C550   1.256       .  A
O548       Al549   1.843       .  S
Al549       O557   1.903       .  S
Al549       O559   1.933       .  S
Al549       O558   1.786       .  S
C550        O563   1.273       .  A
C550        C797   1.464       .  S
O551        C561   1.255       .  A
O551       Al553   1.916       .  S
O552        C565   1.262       .  A
O552       Al562   1.878       .  S
Al553       O566   1.927       .  S
Al553       O563   1.943       .  S
Al553       O558   1.776       .  S
O554        C561   1.252       .  A
O554       Al562   1.885       .  S
O555        C564   1.262       .  A
O555       Al562   1.913       .  S
O556       Al562   1.887       .  S
O557        C564   1.264       .  A
O558       Al562   1.785       .  S
O559        C560   1.259       .  A
C561        C805   1.473       .  S
C564        C793   1.469       .  S
C565        O566   1.273       .  A
C565        C810   1.466       .  S
O567        C582   1.271       .  A
O567       Al575   1.915       .  S
C568        O578   1.270       .  A
C568        O569   1.261       .  A
C568        C781   1.470   1_554  S
O569       Al571   1.886       .  S
O570        C572   1.255       .  A
O570       Al571   1.895       .  S
Al571       O579   1.924       .  S
Al571       O581   1.876       .  S
Al571       O580   1.784       .  S
C572        O585   1.255       .  A
C572        C785   1.472       .  S
O573        C583   1.269       .  A
O573       Al575   1.936       .  S
O574        C587   1.261       .  A
Al575       O588   1.881       .  S
Al575       O585   1.911       .  S
Al575       O580   1.780       .  S
O576        C583   1.256       .  A
O576       Al584   1.843       .  S
O577        C586   1.264       .  A
O577       Al584   1.909       .  S
O578       Al584   1.933       .  S
O579        C586   1.263       .  A
O580       Al584   1.782       .  S
O581        C582   1.262       .  A
C582        C777   1.458       .  S
C583        C798   1.465       .  S
C586        C773   1.478       .  S
C587        C789   1.487       .  S
O589        C604   1.274       .  A
O589       Al597   1.931       .  S
C590        O600   1.269       .  A
C590        O591   1.261       .  A
C590        C809   1.469       .  S
O591       Al593   1.885       .  S
O592        C594   1.254       .  A
O592       Al593   1.894       .  S
Al593       O601   1.922       .  S
Al593       O603   1.881       .  S
Al593       O602   1.786       .  S
C594        O607   1.255       .  A
C594        C790   1.474       .  S
O595        C605   1.273       .  A
O595       Al597   1.949       .  S
O596        C609   1.260       .  A
O596       Al606   1.932       .  S
Al597       O610   1.873       .  S
Al597       O607   1.914       .  S
Al597       O602   1.775       .  S
O598        C605   1.257       .  A
O598       Al606   1.859       .  S
O599        C608   1.263       .  A
O599       Al606   1.909       .  S
O600       Al606   1.927       .  S
O601        C608   1.263       .  A
O602       Al606   1.789       .  S
O603        C604   1.263       .  A
C604        C814   1.468       .  S
C605        C770   1.473       .  S
C608        C765   1.477       .  S
C609        O610   1.252       .  A
C609        C786   1.485       .  S
O611        C626   1.253       .  A
O611       Al619   1.880       .  S
C612        O622   1.260       .  A
C612        O613   1.267       .  A
C612        C778   1.462       .  S
O613       Al615   1.918       .  S
O614        C616   1.258       .  A
O614       Al615   1.861       .  S
Al615       O623   1.905       .  S
Al615       O625   1.923       .  S
Al615       O624   1.788       .  S
C616        O629   1.273       .  A
C616        C769   1.474       .  S
O617        C627   1.254       .  A
O617       Al619   1.913       .  S
O618        C631   1.262       .  A
O618       Al628   1.877       .  S
Al619       O632   1.929       .  S
Al619       O629   1.947       .  S
Al619       O624   1.776       .  S
O620        C627   1.253       .  A
O620       Al628   1.891       .  S
O621        C630   1.263       .  A
O621       Al628   1.920       .  S
O622       Al628   1.884       .  S
O623        C630   1.263       .  A
O624       Al628   1.788       .  S
O625        C626   1.257       .  A
C626        C806   1.485       .  S
C627        C802   1.474       .  S
C630        C761   1.473       .  S
C631        O632   1.274       .  A
C631        C782   1.466       .  S
O633        C648   1.269       .  A
O633       Al641   1.915       .  S
C634        O644   1.259       .  A
C634        O635   1.268       .  A
C634        C753   1.479       .  S
O635       Al637   1.935       .  S
O636        C638   1.252       .  A
O636       Al637   1.887       .  S
Al637       O645   1.912       .  S
Al637       O647   1.919       .  S
Al637       O646   1.776       .  S
C638        O651   1.255       .  A
C638        C750   1.486   1_455  S
O639        C649   1.275       .  A
O639       Al641   1.941       .  S
O640        C653   1.251       .  A
O640       Al650   1.909       .  S
Al641       O654   1.879       .  S
Al641       O651   1.924       .  S
Al641       O646   1.782       .  S
O642        C649   1.265       .  A
O642       Al650   1.868       .  S
O643        C652   1.267       .  A
O643       Al650   1.910       .  S
O644       Al650   1.921       .  S
O645        C652   1.265       .  A
O646       Al650   1.797       .  S
O647        C648   1.270       .  A
C648        C757   1.484       .  S
C649        C741   1.471       .  S
C652        C794   1.472       .  S
C653        O654   1.249       .  A
C653        C746   1.481       .  S
O655        C670   1.255       .  A
O655       Al663   1.875       .  S
C656        O666   1.263       .  A
C656        O657   1.270       .  A
C656        C730   1.472       .  S
O657       Al659   1.927       .  S
O658        C660   1.257       .  A
O658       Al659   1.873       .  S
Al659       O667   1.912       .  S
Al659       O669   1.936       .  S
Al659       O668   1.783       .  S
C660        O673   1.264   1_655  A
C660        C742   1.468   1_655  S
O661        C671   1.256       .  A
O661       Al663   1.908   1_455  S
O662        C675   1.269       .  A
O662       Al672   1.907       .  S
Al663       O676   1.916       .  S
Al663       O673   1.922   1_655  S
Al663       O668   1.774       .  S
O664        C671   1.257   1_655  A
O664       Al672   1.901       .  S
O665        C674   1.261       .  A
O665       Al672   1.916       .  S
O666       Al672   1.893       .  S
O667        C674   1.263       .  A
O668       Al672   1.781       .  S
O669        C670   1.264       .  A
C670        C737   1.483       .  S
C671        C733   1.466       .  S
C674        C774   1.479       .  S
C675        O676   1.268       .  A
C675        C725   1.470       .  S
O677        C692   1.255       .  A
O677       Al685   1.865       .  S
C678        O688   1.270       .  A
C678        O679   1.273       .  A
C678        C758   1.491   1_554  S
O679       Al681   1.940       .  S
O680        C682   1.253       .  A
O680       Al681   1.853       .  S
Al681       O689   1.909       .  S
Al681       O691   1.926       .  S
Al681       O690   1.789       .  S
C682        O695   1.263       .  A
C682        C722   1.457       .  S
O683        C693   1.253   1_655  A
O683       Al685   1.909   1_655  S
O684        C697   1.275       .  A
O684       Al694   1.926       .  S
Al685       O698   1.924       .  S
Al685       O695   1.910       .  S
Al685       O690   1.778       .  S
O686        C693   1.254       .  A
O686       Al694   1.900       .  S
O687        C696   1.257       .  A
O687       Al694   1.912       .  S
O688       Al694   1.915       .  S
O689        C696   1.258       .  A
O690       Al694   1.779       .  S
O691        C692   1.262       .  A
C693        C738   1.469   1_455  S
C696        C766   1.478       .  S
C697        O698   1.270       .  A
C697        C754   1.482       .  S
O699        C714   1.274       .  A
O699       Al707   1.934       .  S
C700        O710   1.272       .  A
C700        O701   1.260       .  A
C700        C726   1.476       .  S
O701       Al703   1.884       .  S
O702        C704   1.253   1_655  A
O702       Al703   1.887       .  S
Al703       O711   1.913       .  S
Al703       O713   1.876       .  S
Al703       O712   1.783       .  S
C704        O717   1.255       .  A
C704        C745   1.470       .  S
O705        C715   1.270       .  A
O705       Al707   1.942       .  S
O706        C719   1.262       .  A
Al707       O720   1.881       .  S
Al707       O717   1.912   1_655  S
Al707       O712   1.779       .  S
O708        C715   1.254       .  A
O708       Al716   1.837       .  S
O709        C718   1.264       .  A
O709       Al716   1.911       .  S
O710       Al716   1.946       .  S
O711        C718   1.262       .  A
O712       Al716   1.782       .  S
O713        C714   1.262       .  A
C714        C729   1.466       .  S
C715        C721   1.465   1_655  S
C718        C762   1.475       .  S
C719        C749   1.495       .  S
C722        H724   1.087   1_455  S
C725        C998   1.339       .  D
C725        H727   1.088       .  S
C726        C997   1.341       .  D
C726        H728   1.087       .  S
C729        C730   1.341       .  D
C729        H731   1.087       .  S
C730        H732   1.087       .  S
C733        C734   1.344       .  D
C733        H735   1.087       .  S
C734        H736   1.087       .  S
C737        C738   1.348       .  D
C737        H739   1.087       .  S
C738        H740   1.087       .  S
C741        C742   1.349       .  D
C741        H743   1.086   1_455  S
C742        H744   1.087       .  S
C745        C746   1.344       .  D
C745        H747   1.087       .  S
C746        H748   1.087       .  S
C749        C750   1.353       .  D
C749        H751   1.086       .  S
C750        H752   1.086       .  S
C753        C754   1.341       .  D
C753        H755   1.087       .  S
C754        H756   1.088       .  S
C757       C1030   1.354       .  D
C757        H759   1.086       .  S
C758       C1029   1.353       .  D
C758        H760   1.087       .  S
C761        C762   1.350       .  D
C761        H763   1.086       .  S
C762        H764   1.086       .  S
C765        C766   1.350       .  D
C765        H767   1.086       .  S
C766        H768   1.086       .  S
C769        C770   1.356       .  D
C769        H771   1.087       .  S
C770        H772   1.086       .  S
C773        C774   1.351       .  D
C773        H775   1.086       .  S
C774        H776   1.086       .  S
C777        C778   1.340       .  D
C777        H779   1.087       .  S
C778        H780   1.088       .  S
C781       C1054   1.341       .  D
C781        H783   1.087       .  S
C782       C1053   1.339       .  D
C782        H784   1.087       .  S
C785        C786   1.349       .  D
C785        H787   1.087       .  S
C786        H788   1.087       .  S
C789        C790   1.349       .  D
C789        H791   1.087       .  S
C790        H792   1.087       .  S
C793        C794   1.350       .  D
C793        H795   1.087       .  S
C794        H796   1.086       .  S
C797        H799   1.087       .  S
C798        H800   1.087       .  S
C801        C802   1.349       .  D
C801        H803   1.087       .  S
C802        H804   1.087       .  S
C805        C806   1.346       .  D
C805        H807   1.087       .  S
C806        H808   1.087       .  S
C809        C810   1.341       .  D
C809        H811   1.087       .  S
C810        H812   1.087       .  S
C813       C1086   1.341       .  D
C813        H815   1.087       .  S
C814       C1085   1.341       .  D
C814        H816   1.087       .  S
O817        C832   1.251       .  A
O817       Al825   1.876       .  S
C818        O828   1.261       .  A
C818        O819   1.269       .  A
C818       C1085   1.470   1_556  S
O819       Al821   1.930       .  S
O820        C822   1.257       .  A
O820       Al821   1.849       .  S
Al821       O829   1.909       .  S
Al821       O831   1.938       .  S
Al821       O830   1.788       .  S
C822        O835   1.272       .  A
C822       C1069   1.464       .  S
O823        C833   1.254       .  A
O823       Al825   1.911       .  S
O824        C837   1.262       .  A
O824       Al834   1.878       .  S
Al825       O838   1.926       .  S
Al825       O835   1.940       .  S
Al825       O830   1.776       .  S
O826        C833   1.254       .  A
O826       Al834   1.894       .  S
O827        C836   1.264       .  A
O827       Al834   1.922       .  S
O828       Al834   1.887       .  S
O829        C836   1.265       .  A
O830       Al834   1.785       .  S
O831        C832   1.260       .  A
C833       C1077   1.474       .  S
C836       C1065   1.475       .  S
C837        O838   1.273       .  A
C837       C1082   1.465       .  S
O839        C854   1.274       .  A
O839       Al847   1.930       .  S
C840        O850   1.272       .  A
C840        O841   1.260       .  A
C840       C1053   1.468       .  S
O841       Al843   1.878       .  S
O842        C844   1.253       .  A
O842       Al843   1.892       .  S
Al843       O851   1.917       .  S
Al843       O853   1.868       .  S
Al843       O852   1.786       .  S
C844        O857   1.255       .  A
C844       C1057   1.474       .  S
O845        C855   1.273       .  A
O845       Al847   1.947       .  S
O846        C859   1.263   1_545  A
Al847       O860   1.878       .  S
Al847       O857   1.916       .  S
Al847       O852   1.776       .  S
O848        C855   1.254       .  A
O848       Al856   1.842       .  S
O849        C858   1.265       .  A
O849       Al856   1.913       .  S
O850       Al856   1.939       .  S
O851        C858   1.262       .  A
O852       Al856   1.784       .  S
O853        C854   1.261       .  A
C854       C1049   1.459       .  S
C855       C1070   1.467       .  S
C858       C1045   1.476       .  S
C859       C1061   1.490       .  S
O861        C876   1.273       .  A
O861       Al869   1.926       .  S
C862        O872   1.269       .  A
C862        O863   1.261       .  A
C862       C1081   1.468       .  S
O863       Al865   1.886       .  S
O864        C866   1.255       .  A
O864       Al865   1.896       .  S
Al865       O873   1.923       .  S
Al865       O875   1.880       .  S
Al865       O874   1.786       .  S
C866        O879   1.257       .  A
C866       C1062   1.477       .  S
O867        C877   1.273       .  A
O867       Al869   1.947       .  S
O868        C881   1.260       .  A
O868       Al878   1.932       .  S
Al869       O882   1.879       .  S
Al869       O879   1.918       .  S
Al869       O874   1.776       .  S
O870        C877   1.257       .  A
O870       Al878   1.861       .  S
O871        C880   1.264       .  A
O871       Al878   1.911       .  S
O872       Al878   1.926       .  S
O873        C880   1.263       .  A
O874       Al878   1.788       .  S
O875        C876   1.263       .  A
C876       C1086   1.465       .  S
C877       C1042   1.473       .  S
C880       C1037   1.479       .  S
C881        O882   1.253       .  A
C881       C1058   1.487       .  S
O883        C898   1.253       .  A
O883       Al891   1.874       .  S
C884        O894   1.261       .  A
C884        O885   1.270       .  A
C884       C1050   1.464       .  S
O885       Al887   1.925       .  S
O886        C888   1.256       .  A
O886       Al887   1.860       .  S
Al887       O895   1.915       .  S
Al887       O897   1.936       .  S
Al887       O896   1.787       .  S
C888        O901   1.272       .  A
C888       C1041   1.474       .  S
O889        C899   1.256       .  A
O889       Al891   1.919       .  S
O890        C903   1.263       .  A
O890       Al900   1.882       .  S
Al891       O904   1.933       .  S
Al891       O901   1.947       .  S
Al891       O896   1.774       .  S
O892        C899   1.253       .  A
O892       Al900   1.887       .  S
O893        C902   1.260       .  A
O893       Al900   1.908       .  S
O894       Al900   1.882       .  S
O895        C902   1.265       .  A
O896       Al900   1.785       .  S
O897        C898   1.262       .  A
C898       C1078   1.487       .  S
C899       C1074   1.472       .  S
C902       C1033   1.476       .  S
C903        O904   1.274       .  A
C903       C1054   1.468       .  S
O905        C920   1.272       .  A
O905       Al913   1.932       .  S
C906        O916   1.260       .  A
C906        O907   1.267       .  A
C906       C1025   1.479       .  S
O907       Al909   1.928       .  S
O908        C910   1.253       .  A
O908       Al909   1.889       .  S
Al909       O917   1.917       .  S
Al909       O919   1.913       .  S
Al909       O918   1.775       .  S
C910        O923   1.254       .  A
C910       C1022   1.482   1_455  S
O911        C921   1.278       .  A
O911       Al913   1.953       .  S
O912        C925   1.254       .  A
O912       Al922   1.918       .  S
Al913       O926   1.872       .  S
Al913       O923   1.918       .  S
Al913       O918   1.781       .  S
O914        C921   1.263       .  A
O914       Al922   1.873       .  S
O915        C924   1.269       .  A
O915       Al922   1.915       .  S
O916       Al922   1.926       .  S
O917        C924   1.266       .  A
O918       Al922   1.797       .  S
O919        C920   1.268       .  A
C920       C1029   1.489       .  S
C921       C1013   1.475   1_455  S
C924       C1066   1.477       .  S
C925        O926   1.247       .  A
C925       C1018   1.478       .  S
O927        C942   1.251       .  A
O927       Al935   1.874       .  S
C928        O938   1.257       .  A
C928        O929   1.268       .  A
C928       C1002   1.466       .  S
O929       Al931   1.933       .  S
O930        C932   1.258       .  A
O930       Al931   1.862       .  S
Al931       O939   1.914       .  S
Al931       O941   1.940       .  S
Al931       O940   1.791       .  S
C932        O945   1.274       .  A
C932       C1014   1.477   1_655  S
O933        C943   1.254       .  A
O933       Al935   1.904   1_455  S
O934        C947   1.260       .  A
O934       Al944   1.880       .  S
Al935       O948   1.938       .  S
Al935       O945   1.954       .  S
Al935       O940   1.780       .  S
O936        C943   1.255   1_655  A
O936       Al944   1.892       .  S
O937        C946   1.262       .  A
O937       Al944   1.912       .  S
O938       Al944   1.874       .  S
O939        C946   1.266       .  A
O940       Al944   1.785       .  S
O941        C942   1.261       .  A
C942       C1009   1.487       .  S
C943       C1005   1.469       .  S
C946       C1046   1.477       .  S
C947        O948   1.273       .  A
C947        C997   1.474       .  S
O949        C964   1.254       .  A
O949       Al957   1.863       .  S
C950        O960   1.271       .  A
C950        O951   1.270       .  A
C950       C1030   1.485       .  S
O951       Al953   1.929       .  S
O952        C954   1.255       .  A
O952       Al953   1.864       .  S
Al953       O961   1.912       .  S
Al953       O963   1.921       .  S
Al953       O962   1.791       .  S
C954        O967   1.264       .  A
C954        C994   1.459   1_455  S
O955        C965   1.254   1_655  A
O955       Al957   1.910   1_655  S
O956        C969   1.274       .  A
O956       Al966   1.924       .  S
Al957       O970   1.920       .  S
Al957       O967   1.909       .  S
Al957       O962   1.779       .  S
O958        C965   1.255       .  A
O958       Al966   1.904       .  S
O959        C968   1.259       .  A
O959       Al966   1.914       .  S
O960       Al966   1.918       .  S
O961        C968   1.260       .  A
O962       Al966   1.777       .  S
O963        C964   1.259       .  A
C965       C1010   1.473   1_455  S
C968       C1038   1.479       .  S
C969        O970   1.269       .  A
C969       C1026   1.481       .  S
O971        C986   1.275       .  A
O971       Al979   1.887       .  S
C972        O982   1.257       .  A
C972        O973   1.261       .  A
C972        C998   1.471   1_556  S
O973       Al975   1.891       .  S
O974        C976   1.245   1_655  A
O974       Al975   1.895       .  S
Al975       O983   1.880       .  S
Al975       O985   1.938       .  S
Al975       O984   1.780       .  S
C976        O989   1.244       .  A
C976       C1017   1.475       .  S
O977        C987   1.275   1_455  A
O977       Al979   1.899   1_455  S
O978        C991   1.262       .  A
Al979       O992   1.855       .  S
Al979       O989   1.890   1_655  S
Al979       O984   1.782       .  S
O980        C987   1.274       .  A
O980       Al988   1.906       .  S
O981        C990   1.261       .  A
O981       Al988   1.909       .  S
O982       Al988   1.902       .  S
O983        C990   1.254       .  A
O984       Al988   1.793       .  S
O985        C986   1.278       .  A
C986       C1001   1.472       .  S
C987        C993   1.461   1_655  S
C990       C1034   1.475       .  S
C991       C1021   1.489       .  S
C994        H996   1.087       .  S
C997        H999   1.087       .  S
C998       H1000   1.086       .  S
C1001      C1002   1.342       .  D
C1001      H1003   1.087       .  S
C1002      H1004   1.087       .  S
C1005      C1006   1.347       .  D
C1005      H1007   1.087       .  S
C1006      H1008   1.087       .  S
C1009      C1010   1.351       .  D
C1009      H1011   1.087       .  S
C1010      H1012   1.087       .  S
C1013      C1014   1.355   1_655  D
C1013      H1015   1.087       .  S
C1014      H1016   1.086       .  S
C1017      C1018   1.349       .  D
C1017      H1019   1.087       .  S
C1018      H1020   1.086       .  S
C1021      C1022   1.354       .  D
C1021      H1023   1.086       .  S
C1022      H1024   1.088       .  S
C1025      C1026   1.341       .  D
C1025      H1027   1.087       .  S
C1026      H1028   1.088       .  S
C1029      H1031   1.086       .  S
C1030      H1032   1.087       .  S
C1033      C1034   1.353       .  D
C1033      H1035   1.086       .  S
C1034      H1036   1.086       .  S
C1037      C1038   1.351       .  D
C1037      H1039   1.086       .  S
C1038      H1040   1.086       .  S
C1041      C1042   1.355       .  D
C1041      H1043   1.087       .  S
C1042      H1044   1.087       .  S
C1045      C1046   1.352       .  D
C1045      H1047   1.086       .  S
C1046      H1048   1.086       .  S
C1049      C1050   1.338       .  D
C1049      H1051   1.087       .  S
C1050      H1052   1.087       .  S
C1053      H1055   1.088       .  S
C1054      H1056   1.087       .  S
C1057      C1058   1.349       .  D
C1057      H1059   1.087       .  S
C1058      H1060   1.087       .  S
C1061      C1062   1.351       .  D
C1061      H1063   1.087       .  S
C1062      H1064   1.087       .  S
C1065      C1066   1.352       .  D
C1065      H1067   1.086       .  S
C1066      H1068   1.086       .  S
C1069      H1071   1.087       .  S
C1070      H1072   1.086       .  S
C1073      C1074   1.345       .  D
C1073      H1075   1.086       .  S
C1074      H1076   1.087       .  S
C1077      C1078   1.350       .  D
C1077      H1079   1.087       .  S
C1078      H1080   1.087       .  S
C1081      C1082   1.341       .  D
C1081      H1083   1.087       .  S
C1082      H1084   1.087       .  S
C1085      H1087   1.087       .  S
C1086      H1088   1.087       .  S
